*Heading
** Job name: AttwoodCompression-1 Model name: AttwoodCompression-1
** Generated by: Abaqus/CAE 2021
*Preprint, echo=NO, model=NO, history=NO, contact=NO
**
** PARTS
**
*Part, name=L7
*Node
      1, -0.00350000011, -0.00350000011, 0.00100000005
      2, -0.00350000011, -0.00272222213, 0.00100000005
      3, -0.00350000011, -0.00194444449, 0.00100000005
      4, -0.00350000011, -0.00116666663, 0.00100000005
      5, -0.00350000011, -0.000388888875, 0.00100000005
      6, -0.00350000011, 0.000388888875, 0.00100000005
      7, -0.00350000011, 0.00116666663, 0.00100000005
      8, -0.00350000011, 0.00194444449, 0.00100000005
      9, -0.00350000011, 0.00272222213, 0.00100000005
     10, -0.00350000011, 0.00350000011, 0.00100000005
     11, -0.00350000011, -0.00350000011, 0.000750000007
     12, -0.00350000011, -0.00272222213, 0.000750000007
     13, -0.00350000011, -0.00194444449, 0.000750000007
     14, -0.00350000011, -0.00116666663, 0.000750000007
     15, -0.00350000011, -0.000388888875, 0.000750000007
     16, -0.00350000011, 0.000388888875, 0.000750000007
     17, -0.00350000011, 0.00116666663, 0.000750000007
     18, -0.00350000011, 0.00194444449, 0.000750000007
     19, -0.00350000011, 0.00272222213, 0.000750000007
     20, -0.00350000011, 0.00350000011, 0.000750000007
** ... 480 like lines cut
*Element, type=C3D8R
  1,  51,  52,  62,  61,   1,   2,  12,  11
  2,  52,  53,  63,  62,   2,   3,  13,  12
  3,  53,  54,  64,  63,   3,   4,  14,  13
  4,  54,  55,  65,  64,   4,   5,  15,  14
  5,  55,  56,  66,  65,   5,   6,  16,  15
  6,  56,  57,  67,  66,   6,   7,  17,  16
  7,  57,  58,  68,  67,   7,   8,  18,  17
  8,  58,  59,  69,  68,   8,   9,  19,  18
  9,  59,  60,  70,  69,   9,  10,  20,  19
 10,  61,  62,  72,  71,  11,  12,  22,  21
 11,  62,  63,  73,  72,  12,  13,  23,  22
 12,  63,  64,  74,  73,  13,  14,  24,  23
 13,  64,  65,  75,  74,  14,  15,  25,  24
 14,  65,  66,  76,  75,  15,  16,  26,  25
 15,  66,  67,  77,  76,  16,  17,  27,  26
 16,  67,  68,  78,  77,  17,  18,  28,  27
 17,  68,  69,  79,  78,  18,  19,  29,  28
 18,  69,  70,  80,  79,  19,  20,  30,  29
 19,  71,  72,  82,  81,  21,  22,  32,  31
 20,  72,  73,  83,  82,  22,  23,  33,  32
** ... 304 like lines cut
*Nset, nset=Set-1, generate
   1,  500,    1
*Elset, elset=Set-1, generate
   1,  324,    1
** Section: L7
*Solid Section, elset=Set-1, material=NeoHooke
,
*End Part
**
*Part, name=Fibers0
*Node
      1,     -0.003410,     -0.003500,      0.000017
      2,     -0.003410,      0.003500,      0.000017
      3,     -0.003342,     -0.003500,      0.000017
      4,     -0.003342,      0.003500,      0.000017
      5,     -0.003273,     -0.003500,      0.000017
      6,     -0.003273,      0.003500,      0.000017
      7,     -0.003204,     -0.003500,      0.000017
      8,     -0.003204,      0.003500,      0.000017
      9,     -0.003135,     -0.003500,      0.000017
      10,     -0.003135,      0.003500,      0.000017
      11,     -0.003067,     -0.003500,      0.000017
      12,     -0.003067,      0.003500,      0.000017
      13,     -0.002998,     -0.003500,      0.000017
      14,     -0.002998,      0.003500,      0.000017
      15,     -0.002929,     -0.003500,      0.000017
      16,     -0.002929,      0.003500,      0.000017
      17,     -0.002861,     -0.003500,      0.000017
      18,     -0.002861,      0.003500,      0.000017
      19,     -0.002792,     -0.003500,      0.000017
      20,     -0.002792,      0.003500,      0.000017
** ... 1596 like lines cut
*Element, type=T3D2
1, 1, 2
2, 3, 4
3, 5, 6
4, 7, 8
5, 9, 10
6, 11, 12
7, 13, 14
8, 15, 16
9, 17, 18
10, 19, 20
11, 21, 22
12, 23, 24
13, 25, 26
14, 27, 28
15, 29, 30
16, 31, 32
17, 33, 34
18, 35, 36
19, 37, 38
20, 39, 40
** ... 788 like lines cut
*Nset, nset=Fib0, internal, generate
1, 1616, 1
*Elset, elset=Fib0, internal, generate
1, 809, 1
**Section: TrussSection
*Solid Section, elset=Fib0, material=Fibers
2.723761E-09,
*End Part
**
*Part, name=Fibers90
*Node
      1,     -0.003500,     -0.003410,      0.000086
      2,      0.003500,     -0.003410,      0.000086
      3,     -0.003500,     -0.003342,      0.000086
      4,      0.003500,     -0.003342,      0.000086
      5,     -0.003500,     -0.003273,      0.000086
      6,      0.003500,     -0.003273,      0.000086
      7,     -0.003500,     -0.003204,      0.000086
      8,      0.003500,     -0.003204,      0.000086
      9,     -0.003500,     -0.003135,      0.000086
      10,      0.003500,     -0.003135,      0.000086
      11,     -0.003500,     -0.003067,      0.000086
      12,      0.003500,     -0.003067,      0.000086
      13,     -0.003500,     -0.002998,      0.000086
      14,      0.003500,     -0.002998,      0.000086
      15,     -0.003500,     -0.002929,      0.000086
      16,      0.003500,     -0.002929,      0.000086
      17,     -0.003500,     -0.002861,      0.000086
      18,      0.003500,     -0.002861,      0.000086
      19,     -0.003500,     -0.002792,      0.000086
      20,      0.003500,     -0.002792,      0.000086
** ... 1394 like lines cut
*Element, type=T3D2
1, 1, 2
2, 3, 4
3, 5, 6
4, 7, 8
5, 9, 10
6, 11, 12
7, 13, 14
8, 15, 16
9, 17, 18
10, 19, 20
11, 21, 22
12, 23, 24
13, 25, 26
14, 27, 28
15, 29, 30
16, 31, 32
17, 33, 34
18, 35, 36
19, 37, 38
20, 39, 40
** ... 687 like lines cut
*Nset, nset=Fib90, internal, generate
1, 1414, 1
*Elset, elset=Fib90, internal, generate
1, 708, 1
**Section: TrussSection
*Solid Section, elset=Fib90, material=Fibers
2.723761E-09,
*End Part
**  
**
** ASSEMBLY
**
*Assembly, name=Assembly
**  
*Instance, name=L7-1, part=L7
*End Instance
**
*Instance, name=Fibers0, part=Fibers0
0.000000E+00, 0.000000E+00, 0.000000E+00
*End Instance
**
*Instance, name=Fibers90, part=Fibers90
0.000000E+00, 0.000000E+00, 0.000000E+00
*End Instance
*Nset, nset=ALLFIBERS, instance=FIBERS0, generate
1, 1616, 1
*Nset, nset=ALLFIBERS, instance=FIBERS90, generate
1, 1414, 1
*Elset, elset=ALLFIBERS, instance=FIBERS0, generate
1, 809, 1
*Elset, elset=ALLFIBERS, instance=FIBERS90, generate
1, 708, 1
**  
*Nset, nset=Compress, instance=L7-1
   1,   2,   3,   4,   5,   6,   7,   8,   9,  10,  51,  52,  53,  54,  55,  56
  57,  58,  59,  60, 101, 102, 103, 104, 105, 106, 107, 108, 109, 110, 151, 152
 153, 154, 155, 156, 157, 158, 159, 160, 201, 202, 203, 204, 205, 206, 207, 208
 209, 210, 251, 252, 253, 254, 255, 256, 257, 258, 259, 260, 301, 302, 303, 304
 305, 306, 307, 308, 309, 310, 351, 352, 353, 354, 355, 356, 357, 358, 359, 360
 401, 402, 403, 404, 405, 406, 407, 408, 409, 410, 451, 452, 453, 454, 455, 456
 457, 458, 459, 460
*Elset, elset=Compress, instance=L7-1
   1,   2,   3,   4,   5,   6,   7,   8,   9,  37,  38,  39,  40,  41,  42,  43
  44,  45,  73,  74,  75,  76,  77,  78,  79,  80,  81, 109, 110, 111, 112, 113
 114, 115, 116, 117, 145, 146, 147, 148, 149, 150, 151, 152, 153, 181, 182, 183
 184, 185, 186, 187, 188, 189, 217, 218, 219, 220, 221, 222, 223, 224, 225, 253
 254, 255, 256, 257, 258, 259, 260, 261, 289, 290, 291, 292, 293, 294, 295, 296
 297,
*Nset, nset=Fixed, instance=L7-1
  41,  42,  43,  44,  45,  46,  47,  48,  49,  50,  91,  92,  93,  94,  95,  96
  97,  98,  99, 100, 141, 142, 143, 144, 145, 146, 147, 148, 149, 150, 191, 192
 193, 194, 195, 196, 197, 198, 199, 200, 241, 242, 243, 244, 245, 246, 247, 248
 249, 250, 291, 292, 293, 294, 295, 296, 297, 298, 299, 300, 341, 342, 343, 344
 345, 346, 347, 348, 349, 350, 391, 392, 393, 394, 395, 396, 397, 398, 399, 400
 441, 442, 443, 444, 445, 446, 447, 448, 449, 450, 491, 492, 493, 494, 495, 496
 497, 498, 499, 500
*Elset, elset=Fixed, instance=L7-1
  28,  29,  30,  31,  32,  33,  34,  35,  36,  64,  65,  66,  67,  68,  69,  70
  71,  72, 100, 101, 102, 103, 104, 105, 106, 107, 108, 136, 137, 138, 139, 140
 141, 142, 143, 144, 172, 173, 174, 175, 176, 177, 178, 179, 180, 208, 209, 210
 211, 212, 213, 214, 215, 216, 244, 245, 246, 247, 248, 249, 250, 251, 252, 280
 281, 282, 283, 284, 285, 286, 287, 288, 316, 317, 318, 319, 320, 321, 322, 323
 324,
*Nset, nset=Host, instance=L7-1, generate
   1,  500,    1
*Elset, elset=Host, instance=L7-1, generate
   1,  324,    1
*Nset, nset=Outside, instance=L7-1, generate
   1,  500,    1
*Elset, elset=Outside, instance=L7-1, generate
   1,  324,    1
** Constraint: Embed-1
*Embedded Element, host elset=HOST
ALLFIBERS
*End Assembly
*Amplitude, name=Ramp
             0.,              0.,             0.1,              1.
** 
** MATERIALS
** 
*Material, name=Fibers
*Density
981.,
*Elastic
 2e+11, 0.3
*Material, name=NeoHooke
*Density
 7.8e+09,
*Hyperelastic, neo hooke
 3.846e+10, 1.1999e-11
** 
** BOUNDARY CONDITIONS
** 
** Name: Fixed Type: Displacement/Rotation
*Boundary
Fixed, 3, 3
** ----------------------------------------------------------------
** 
** STEP: Step-1
** 
*Step, name=Step-1, nlgeom=YES
*Dynamic, Explicit
, 0.1
*Bulk Viscosity
0.06, 1.2
** 
** BOUNDARY CONDITIONS
** 
** Name: Disp Type: Displacement/Rotation
*Boundary, amplitude=Ramp
Compress, 3, 3, -0.0003
** 
** OUTPUT REQUESTS
** 
*Restart, write, number interval=1, time marks=NO
** 
** FIELD OUTPUT: F-Output-1
** 
*Output, field, number interval=100
*Node Output
A, RF, U, V
*Element Output, directions=YES
ER, EVF, LE, PE, PEEQ, PEEQVAVG, PEVAVG, S, SVAVG
*Contact Output
CSTRESS, 
** 
** HISTORY OUTPUT: H-Output-1
** 
*Output, history, variable=PRESELECT, time interval=0.001
*End Step
