*Heading
** Job name: BeamBendTest Model name: Model-1
** Generated by: Abaqus/CAE 2021
*Preprint, echo=NO, model=NO, history=NO, contact=NO
**
** PARTS
**
*Part, name=Beam
*Node
      1,  0.109999999,           0.,           0.
      2,  0.109999999,           0., 0.0199999996
      3, 0.00999999978,           0., 0.0199999996
      4, 0.00999999978,           0.,           0.
      5,  0.109999999, 0.00600000005, 0.0199999996
      6, 0.00999999978, 0.00600000005, 0.0199999996
      7, 0.00999999978, 0.00600000005,           0.
      8,  0.109999999, 0.00600000005,           0.
      9,           0.,           0., 0.0199999996
     10,           0.,           0.,           0.
     11,           0., 0.00600000005, 0.0199999996
     12,           0., 0.00600000005,           0.
     13,  0.119999997, 0.00600000005, 0.0199999996
     14,  0.119999997,           0., 0.0199999996
     15,  0.119999997,           0.,           0.
     16,  0.119999997, 0.00600000005,           0.
     17,  0.109999999,           0., 0.00999999978
     18,  0.104117647,           0., 0.0199999996
     19, 0.0982352942,           0., 0.0199999996
     20, 0.0923529416,           0., 0.0199999996
** ... 178 like lines cut
*Element, type=C3D8R
 1,  86, 169, 181, 137,   1,  17, 105,  50
 2, 169,  88, 153, 181,  17,   2,  18, 105
 3, 137, 181, 182, 138,  50, 105, 106,  49
 4, 181, 153, 154, 182, 105,  18,  19, 106
 5, 138, 182, 183, 139,  49, 106, 107,  48
 6, 182, 154, 155, 183, 106,  19,  20, 107
 7, 139, 183, 184, 140,  48, 107, 108,  47
 8, 183, 155, 156, 184, 107,  20,  21, 108
 9, 140, 184, 185, 141,  47, 108, 109,  46
10, 184, 156, 157, 185, 108,  21,  22, 109
11, 141, 185, 186, 142,  46, 109, 110,  45
12, 185, 157, 158, 186, 109,  22,  23, 110
13, 142, 186, 187, 143,  45, 110, 111,  44
14, 186, 158, 159, 187, 110,  23,  24, 111
15, 143, 187, 188, 144,  44, 111, 112,  43
16, 187, 159, 160, 188, 111,  24,  25, 112
17, 144, 188, 189, 145,  43, 112, 113,  42
18, 188, 160, 161, 189, 112,  25,  26, 113
19, 145, 189, 190, 146,  42, 113, 114,  41
20, 189, 161, 162, 190, 113,  26,  27, 114
** ... 64 like lines cut
*Nset, nset=Set-1, generate
   1,  198,    1
*Elset, elset=Set-1, generate
  1,  84,   1
** Section: NeoHooke
*Solid Section, elset=Set-1, material=NeoHooke
,
*End Part
**
*Part, name=Fibers0
*Node
      1,      0.001538,      0.000000,      0.000351
      2,      0.001538,      0.010000,      0.000351
      3,      0.001538,      0.020000,      0.000351
      4,      0.002941,      0.000000,      0.000351
      5,      0.002941,      0.010000,      0.000351
      6,      0.002941,      0.020000,      0.000351
      7,      0.004343,      0.000000,      0.000351
      8,      0.004343,      0.010000,      0.000351
      9,      0.004343,      0.020000,      0.000351
      10,      0.005746,      0.000000,      0.000351
      11,      0.005746,      0.010000,      0.000351
      12,      0.005746,      0.020000,      0.000351
      13,      0.007148,      0.000000,      0.000351
      14,      0.007148,      0.010000,      0.000351
      15,      0.007148,      0.020000,      0.000351
      16,      0.008551,      0.000000,      0.000351
      17,      0.008551,      0.010000,      0.000351
      18,      0.008551,      0.020000,      0.000351
      19,      0.009953,      0.000000,      0.000351
      20,      0.009953,      0.010000,      0.000351
** ... 745 like lines cut
*Element, type=T3D2
1, 1, 2
2, 2, 3
3, 4, 5
4, 5, 6
5, 7, 8
6, 8, 9
7, 10, 11
8, 11, 12
9, 13, 14
10, 14, 15
11, 16, 17
12, 17, 18
13, 19, 20
14, 20, 21
15, 22, 23
16, 23, 24
17, 25, 26
18, 26, 27
19, 28, 29
20, 29, 30
** ... 490 like lines cut
*Nset, nset=Fib0, internal, generate
1, 765, 1
*Elset, elset=Fib0, internal, generate
1, 511, 1
**Section: TrussSection
*Solid Section, elset=Fib0, material=Fibers
1.134900E-06,
*End Part
**
*Part, name=Fibers90
*Node
      1,      0.000000,      0.000256,      0.001753
      2,      0.010000,      0.000256,      0.001753
      3,      0.020000,      0.000256,      0.001753
      4,      0.030000,      0.000256,      0.001753
      5,      0.040000,      0.000256,      0.001753
      6,      0.050000,      0.000256,      0.001753
      7,      0.060000,      0.000256,      0.001753
      8,      0.070000,      0.000256,      0.001753
      9,      0.080000,      0.000256,      0.001753
      10,      0.090000,      0.000256,      0.001753
      11,      0.100000,      0.000256,      0.001753
      12,      0.110000,      0.000256,      0.001753
      13,      0.120000,      0.000256,      0.001753
      14,      0.000000,      0.001659,      0.001753
      15,      0.010000,      0.001659,      0.001753
      16,      0.020000,      0.001659,      0.001753
      17,      0.030000,      0.001659,      0.001753
      18,      0.040000,      0.001659,      0.001753
      19,      0.050000,      0.001659,      0.001753
      20,      0.060000,      0.001659,      0.001753
** ... 344 like lines cut
*Element, type=T3D2
1, 1, 2
2, 2, 3
3, 3, 4
4, 4, 5
5, 5, 6
6, 6, 7
7, 7, 8
8, 8, 9
9, 9, 10
10, 10, 11
11, 11, 12
12, 12, 13
13, 14, 15
14, 15, 16
15, 16, 17
16, 17, 18
17, 18, 19
18, 19, 20
19, 20, 21
20, 21, 22
** ... 316 like lines cut
*Nset, nset=Fib90, internal, generate
1, 364, 1
*Elset, elset=Fib90, internal, generate
1, 337, 1
**Section: TrussSection
*Solid Section, elset=Fib90, material=Fibers
1.134900E-06,
*End Part
**  
**
** ASSEMBLY
**
*Assembly, name=Assembly
**  
*Instance, name=Beam-1, part=Beam
          0.,           0.,        0.006
          0.,           0.,        0.006,          -1.,           0.,        0.006,          90.
*End Instance
**
*Instance, name=Fibers0, part=Fibers0
0.000000E+00, 0.000000E+00, 0.000000E+00
*End Instance
**
*Instance, name=Fibers90, part=Fibers90
0.000000E+00, 0.000000E+00, 0.000000E+00
*End Instance
*Nset, nset=ALLFIBERS, instance=FIBERS0, generate
1, 765, 1
*Nset, nset=ALLFIBERS, instance=FIBERS90, generate
1, 364, 1
*Elset, elset=ALLFIBERS, instance=FIBERS0, generate
1, 511, 1
*Elset, elset=ALLFIBERS, instance=FIBERS90, generate
1, 337, 1
**  
*Nset, nset=Clamp, instance=Beam-1
   3,   4,   6,   7,   9,  10,  11,  12,  34,  68,  85,  87,  89,  90,  91,  92
  93,  94,  95,  96, 170, 171, 172, 173, 174, 175, 197
*Elset, elset=Clamp, instance=Beam-1, generate
 69,  76,   1
*Nset, nset=Disp, instance=Beam-1
  1,  2, 17
*Elset, elset=Disp, instance=Beam-1
  1,  2, 82, 84
*Nset, nset=HOST, instance=Beam-1, generate
   1,  198,    1
*Elset, elset=HOST, instance=Beam-1, generate
  1,  84,   1
*Nset, nset=Outside, instance=Beam-1
   1,   2,   3,   4,   5,   6,   7,   8,   9,  10,  11,  12,  13,  14,  15,  16
  17,  18,  19,  20,  21,  22,  23,  24,  25,  26,  27,  28,  29,  30,  31,  32
  33,  34,  35,  36,  37,  38,  39,  40,  41,  42,  43,  44,  45,  46,  47,  48
  49,  50,  51,  52,  53,  54,  55,  56,  57,  58,  59,  60,  61,  62,  63,  64
  65,  66,  67,  68,  69,  70,  71,  72,  73,  74,  75,  76,  77,  78,  79,  80
  81,  82,  83,  84,  85,  86,  87,  88,  89,  90,  91,  92,  93,  94,  95,  96
  97,  98,  99, 100, 101, 102, 103, 104, 105, 106, 107, 108, 109, 110, 111, 112
 113, 114, 115, 116, 117, 118, 119, 120, 121, 122, 123, 124, 125, 126, 127, 128
 129, 130, 131, 132, 133, 134, 135, 136, 137, 138, 139, 140, 141, 142, 143, 144
 145, 146, 147, 148, 149, 150, 151, 152, 153, 154, 155, 156, 157, 158, 159, 160
 161, 162, 163, 164, 165, 166, 167, 168, 171, 172, 173, 174, 175, 176, 177, 178
 179, 180
*Elset, elset=Outside, instance=Beam-1, generate
  1,  84,   1
** Constraint: Embed-1
*Embedded Element, host elset=HOST
ALLFIBERS
*End Assembly
*Amplitude, name=Ramp
             0.,              0.,            0.01,              1.
** 
** MATERIALS
** 
*Material, name=Fibers
*Density
7800.,
*Elastic
 2e+11, 0.3
*Material, name=NeoHooke
*Density
7800.,
*Hyperelastic, neo hooke
 3.846e+10, 1.1999e-11
** 
** BOUNDARY CONDITIONS
** 
** Name: Clamp Type: Displacement/Rotation
*Boundary
Clamp, 1, 1
Clamp, 2, 2
Clamp, 3, 3
** ----------------------------------------------------------------
** 
** STEP: Step-1
** 
*Step, name=Step-1, nlgeom=YES
*Dynamic, Explicit
, 0.01
*Bulk Viscosity
0.06, 1.2
** 
** BOUNDARY CONDITIONS
** 
** Name: Disp Type: Displacement/Rotation
*Boundary, amplitude=Ramp
Disp, 3, 3, -0.01
** 
** OUTPUT REQUESTS
** 
*Restart, write, number interval=1, time marks=NO
** 
** FIELD OUTPUT: F-Output-1
** 
*Output, field, variable=PRESELECT, number interval=200
** 
** HISTORY OUTPUT: H-Output-1
** 
*Output, history, variable=PRESELECT
*End Step
