*Heading
** Job name: FlagshypCube_8h_0t_PureShear Model name: Cube-Copy
** Generated by: Abaqus/CAE 2019
*Preprint, echo=NO, model=NO, history=NO, contact=NO
**
** PARTS
**
*Part, name=Cube
*Node
      1,           1.,           1.,           1.
      2,           1.,          0.5,           1.
      3,           1.,           0.,           1.
      4,           1.,           1.,          0.5
      5,           1.,          0.5,          0.5
      6,           1.,           0.,          0.5
      7,           1.,           1.,           0.
      8,           1.,          0.5,           0.
      9,           1.,           0.,           0.
     10,          0.5,           1.,           1.
     11,          0.5,          0.5,           1.
     12,          0.5,           0.,           1.
     13,          0.5,           1.,          0.5
     14,          0.5,          0.5,          0.5
     15,          0.5,           0.,          0.5
     16,          0.5,           1.,           0.
     17,          0.5,          0.5,           0.
     18,          0.5,           0.,           0.
     19,           0.,           1.,           1.
     20,           0.,          0.5,           1.
** ... 7 like lines cut
*Element, type=C3D8
1, 10, 11, 14, 13,  1,  2,  5,  4
2, 11, 12, 15, 14,  2,  3,  6,  5
3, 13, 14, 17, 16,  4,  5,  8,  7
4, 14, 15, 18, 17,  5,  6,  9,  8
5, 19, 20, 23, 22, 10, 11, 14, 13
6, 20, 21, 24, 23, 11, 12, 15, 14
7, 22, 23, 26, 25, 13, 14, 17, 16
8, 23, 24, 27, 26, 14, 15, 18, 17
*Nset, nset=Set-1, generate
  1,  27,   1
*Elset, elset=Set-1, generate
 1,  8,  1
** Section: Cube
*Solid Section, elset=Set-1, material=NeoHooke
,
*End Part
**
*Part, name=Fibers0
*Node
      1,      0.013440,      0.000000,      0.013440
      2,      0.013440,      0.243590,      0.013440
      3,      0.013440,      0.487179,      0.013440
      4,      0.013440,      0.730769,      0.013440
      5,      0.013440,      0.974359,      0.013440
      6,      0.067198,      0.000000,      0.013440
      7,      0.067198,      0.243590,      0.013440
      8,      0.067198,      0.487179,      0.013440
      9,      0.067198,      0.730769,      0.013440
      10,      0.067198,      0.974359,      0.013440
      11,      0.120957,      0.000000,      0.013440
      12,      0.120957,      0.243590,      0.013440
      13,      0.120957,      0.487179,      0.013440
      14,      0.120957,      0.730769,      0.013440
      15,      0.120957,      0.974359,      0.013440
      16,      0.174716,      0.000000,      0.013440
      17,      0.174716,      0.243590,      0.013440
      18,      0.174716,      0.487179,      0.013440
      19,      0.174716,      0.730769,      0.013440
      20,      0.174716,      0.974359,      0.013440
** ... 930 like lines cut
*Element, type=T3D2
1, 1, 2
2, 2, 3
3, 3, 4
4, 4, 5
5, 6, 7
6, 7, 8
7, 8, 9
8, 9, 10
9, 11, 12
10, 12, 13
11, 13, 14
12, 14, 15
13, 16, 17
14, 17, 18
15, 18, 19
16, 19, 20
17, 21, 22
18, 22, 23
19, 23, 24
20, 24, 25
** ... 740 like lines cut
*Nset, nset=Fib0, internal, generate
1, 950, 1
*Elset, elset=Fib0, internal, generate
1, 761, 1
**Section: TrussSection
*Solid Section, elset=Fib0, material=Fibers
2.269801E-03,
*End Part
**
*Part, name=Fibers90
*Node
      1,      0.000000,      0.013440,      0.067198
      2,      0.243590,      0.013440,      0.067198
      3,      0.487179,      0.013440,      0.067198
      4,      0.730769,      0.013440,      0.067198
      5,      0.974359,      0.013440,      0.067198
      6,      0.000000,      0.067198,      0.067198
      7,      0.243590,      0.067198,      0.067198
      8,      0.487179,      0.067198,      0.067198
      9,      0.730769,      0.067198,      0.067198
      10,      0.974359,      0.067198,      0.067198
      11,      0.000000,      0.120957,      0.067198
      12,      0.243590,      0.120957,      0.067198
      13,      0.487179,      0.120957,      0.067198
      14,      0.730769,      0.120957,      0.067198
      15,      0.974359,      0.120957,      0.067198
      16,      0.000000,      0.174716,      0.067198
      17,      0.243590,      0.174716,      0.067198
      18,      0.487179,      0.174716,      0.067198
      19,      0.730769,      0.174716,      0.067198
      20,      0.974359,      0.174716,      0.067198
** ... 835 like lines cut
*Element, type=T3D2
1, 1, 2
2, 2, 3
3, 3, 4
4, 4, 5
5, 6, 7
6, 7, 8
7, 8, 9
8, 9, 10
9, 11, 12
10, 12, 13
11, 13, 14
12, 14, 15
13, 16, 17
14, 17, 18
15, 18, 19
16, 19, 20
17, 21, 22
18, 22, 23
19, 23, 24
20, 24, 25
** ... 664 like lines cut
*Nset, nset=Fib90, internal, generate
1, 855, 1
*Elset, elset=Fib90, internal, generate
1, 685, 1
**Section: TrussSection
*Solid Section, elset=Fib90, material=Fibers
2.269801E-03,
*End Part
**  
**
** ASSEMBLY
**
*Assembly, name=Assembly
**  
*Instance, name=Cube-1, part=Cube
*End Instance
**
*Instance, name=Fibers0, part=Fibers0
0.000000E+00, 0.000000E+00, 0.000000E+00
*End Instance
**
*Instance, name=Fibers90, part=Fibers90
0.000000E+00, 0.000000E+00, 0.000000E+00
*End Instance
*Nset, nset=ALLFIBERS, instance=FIBERS0, generate
1, 950, 1
*Nset, nset=ALLFIBERS, instance=FIBERS90, generate
1, 855, 1
*Elset, elset=ALLFIBERS, instance=FIBERS0, generate
1, 761, 1
*Elset, elset=ALLFIBERS, instance=FIBERS90, generate
1, 685, 1
**  
*Nset, nset=Bottom, instance=Cube-1, generate
  3,  27,   3
*Elset, elset=Bottom, instance=Cube-1, generate
 2,  8,  2
*Nset, nset=CubeOut, instance=Cube-1, generate
  1,  27,   1
*Elset, elset=CubeOut, instance=Cube-1, generate
 1,  8,  1
*Nset, nset=Disp, instance=Cube-1, generate
  1,  25,   3
*Elset, elset=Disp, instance=Cube-1, generate
 1,  7,  2
*Nset, nset=Disp2, instance=Cube-1, generate
  2,  26,   3
*Nset, nset=Host, instance=Cube-1, generate
  1,  27,   1
*Elset, elset=Host, instance=Cube-1, generate
 1,  8,  1
*Nset, nset=Load, instance=Cube-1, generate
  1,  25,   3
*Elset, elset=Load, instance=Cube-1, generate
 1,  7,  2
*Nset, nset=MidY, instance=Cube-1, generate
  2,  26,   3
*Nset, nset=X, instance=Cube-1, generate
  3,  27,   3
*Elset, elset=X, instance=Cube-1, generate
 2,  8,  2
*Nset, nset=Y, instance=Cube-1
  1,  3,  4,  6,  7,  9, 10, 12, 13, 15, 16, 18, 19, 21, 22, 24
 25, 27
*Elset, elset=Y, instance=Cube-1, generate
 1,  8,  1
*Nset, nset=Z, instance=Cube-1, generate
  1,  27,   1
*Elset, elset=Z, instance=Cube-1, generate
 1,  8,  1
** Constraint: Embed-1
*Embedded Element, host elset=HOST
ALLFIBERS
*End Assembly
*Amplitude, name=Ramp
             0.,              0.,             0.1,              1.
** 
** MATERIALS
** 
*Material, name=NeoHooke
*Density
7800.,
*Hyperelastic, neo hooke
 3.846e+10, 1.1999e-11
** 
** BOUNDARY CONDITIONS
** 
** Name: MidY Type: Displacement/Rotation
*Boundary
MidY, 2, 2
** Name: X Type: Displacement/Rotation
*Boundary
X, 1, 1
** Name: Y Type: Displacement/Rotation
*Boundary
Y, 2, 2
** ----------------------------------------------------------------
** 
** STEP: Step-1
** 
*Step, name=Step-1, nlgeom=YES
*Dynamic, Explicit, scale factor=0.5
, 0.1
*Bulk Viscosity
0.06, 1.2
** 
** BOUNDARY CONDITIONS
** 
** Name: ShearDisp Type: Displacement/Rotation
*Boundary, amplitude=Ramp
Disp, 1, 1, 0.02
** Name: ShearDisp2 Type: Displacement/Rotation
*Boundary, amplitude=Ramp
Disp2, 1, 1, 0.01
** 
** OUTPUT REQUESTS
** 
*Restart, write, number interval=1, time marks=NO
** 
** FIELD OUTPUT: F-Output-1
** 
*Output, field, variable=PRESELECT, number interval=200
** 
** HISTORY OUTPUT: H-Output-1
** 
*Output, history, variable=PRESELECT
*End Step
