*Heading
** Job name: FlagshypCube_8h_0t_PureShear Model name: Cube-Copy
** Generated by: Abaqus/CAE 2019
*Preprint, echo=NO, model=NO, history=NO, contact=NO
**
** PARTS
**
*Part, name=Cube
*Node
      1,           1.,           1.,           1.
      2,           1.,          0.5,           1.
      3,           1.,           0.,           1.
      4,           1.,           1.,          0.5
      5,           1.,          0.5,          0.5
      6,           1.,           0.,          0.5
      7,           1.,           1.,           0.
      8,           1.,          0.5,           0.
      9,           1.,           0.,           0.
     10,          0.5,           1.,           1.
     11,          0.5,          0.5,           1.
     12,          0.5,           0.,           1.
     13,          0.5,           1.,          0.5
     14,          0.5,          0.5,          0.5
     15,          0.5,           0.,          0.5
     16,          0.5,           1.,           0.
     17,          0.5,          0.5,           0.
     18,          0.5,           0.,           0.
     19,           0.,           1.,           1.
     20,           0.,          0.5,           1.
** ... 7 like lines cut
*Element, type=C3D8
1, 10, 11, 14, 13,  1,  2,  5,  4
2, 11, 12, 15, 14,  2,  3,  6,  5
3, 13, 14, 17, 16,  4,  5,  8,  7
4, 14, 15, 18, 17,  5,  6,  9,  8
5, 19, 20, 23, 22, 10, 11, 14, 13
6, 20, 21, 24, 23, 11, 12, 15, 14
7, 22, 23, 26, 25, 13, 14, 17, 16
8, 23, 24, 27, 26, 14, 15, 18, 17
*Nset, nset=Set-1, generate
  1,  27,   1
*Elset, elset=Set-1, generate
 1,  8,  1
** Section: Cube
*Solid Section, elset=Set-1, material=NeoHooke
,
*End Part
**
*Part, name=Fibers0
*Node
      1,      0.060104,      0.000000,      0.060104
      2,      0.060104,      0.250000,      0.060104
      3,      0.060104,      0.500000,      0.060104
      4,      0.060104,      0.750000,      0.060104
      5,      0.060104,      1.000000,      0.060104
      6,      0.300520,      0.000000,      0.060104
      7,      0.300520,      0.250000,      0.060104
      8,      0.300520,      0.500000,      0.060104
      9,      0.300520,      0.750000,      0.060104
      10,      0.300520,      1.000000,      0.060104
      11,      0.540937,      0.000000,      0.060104
      12,      0.540937,      0.250000,      0.060104
      13,      0.540937,      0.500000,      0.060104
      14,      0.540937,      0.750000,      0.060104
      15,      0.540937,      1.000000,      0.060104
      16,      0.781353,      0.000000,      0.060104
      17,      0.781353,      0.250000,      0.060104
      18,      0.781353,      0.500000,      0.060104
      19,      0.781353,      0.750000,      0.060104
      20,      0.781353,      1.000000,      0.060104
** ... 20 like lines cut
*Element, type=T3D2
1, 1, 2
2, 2, 3
3, 3, 4
4, 4, 5
5, 6, 7
6, 7, 8
7, 8, 9
8, 9, 10
9, 11, 12
10, 12, 13
11, 13, 14
12, 14, 15
13, 16, 17
14, 17, 18
15, 18, 19
16, 19, 20
17, 21, 22
18, 22, 23
19, 23, 24
20, 24, 25
** ... 12 like lines cut
*Nset, nset=Fib0, internal, generate
1, 40, 1
*Elset, elset=Fib0, internal, generate
1, 33, 1
**Section: TrussSection
*Solid Section, elset=Fib0, material=Fibers
4.539601E-02,
*End Part
**
*Part, name=Fibers90
*Node
      1,      0.000000,      0.060104,      0.300520
      2,      0.250000,      0.060104,      0.300520
      3,      0.500000,      0.060104,      0.300520
      4,      0.750000,      0.060104,      0.300520
      5,      1.000000,      0.060104,      0.300520
      6,      0.000000,      0.300520,      0.300520
      7,      0.250000,      0.300520,      0.300520
      8,      0.500000,      0.300520,      0.300520
      9,      0.750000,      0.300520,      0.300520
      10,      1.000000,      0.300520,      0.300520
      11,      0.000000,      0.540937,      0.300520
      12,      0.250000,      0.540937,      0.300520
      13,      0.500000,      0.540937,      0.300520
      14,      0.750000,      0.540937,      0.300520
      15,      1.000000,      0.540937,      0.300520
      16,      0.000000,      0.781353,      0.300520
      17,      0.250000,      0.781353,      0.300520
      18,      0.500000,      0.781353,      0.300520
      19,      0.750000,      0.781353,      0.300520
      20,      1.000000,      0.781353,      0.300520
** ... 20 like lines cut
*Element, type=T3D2
1, 1, 2
2, 2, 3
3, 3, 4
4, 4, 5
5, 6, 7
6, 7, 8
7, 8, 9
8, 9, 10
9, 11, 12
10, 12, 13
11, 13, 14
12, 14, 15
13, 16, 17
14, 17, 18
15, 18, 19
16, 19, 20
17, 21, 22
18, 22, 23
19, 23, 24
20, 24, 25
** ... 12 like lines cut
*Nset, nset=Fib90, internal, generate
1, 40, 1
*Elset, elset=Fib90, internal, generate
1, 33, 1
**Section: TrussSection
*Solid Section, elset=Fib90, material=Fibers
4.539601E-02,
*End Part
**  
**
** ASSEMBLY
**
*Assembly, name=Assembly
**  
*Instance, name=Cube-1, part=Cube
*End Instance
**
*Instance, name=Fibers0, part=Fibers0
0.000000E+00, 0.000000E+00, 0.000000E+00
*End Instance
**
*Instance, name=Fibers90, part=Fibers90
0.000000E+00, 0.000000E+00, 0.000000E+00
*End Instance
*Nset, nset=ALLFIBERS, instance=FIBERS0, generate
1, 40, 1
*Nset, nset=ALLFIBERS, instance=FIBERS90, generate
1, 40, 1
*Elset, elset=ALLFIBERS, instance=FIBERS0, generate
1, 33, 1
*Elset, elset=ALLFIBERS, instance=FIBERS90, generate
1, 33, 1
**  
*Nset, nset=Bottom, instance=Cube-1, generate
  3,  27,   3
*Elset, elset=Bottom, instance=Cube-1, generate
 2,  8,  2
*Nset, nset=CubeOut, instance=Cube-1, generate
  1,  27,   1
*Elset, elset=CubeOut, instance=Cube-1, generate
 1,  8,  1
*Nset, nset=Disp, instance=Cube-1, generate
  1,  25,   3
*Elset, elset=Disp, instance=Cube-1, generate
 1,  7,  2
*Nset, nset=Disp2, instance=Cube-1, generate
  2,  26,   3
*Nset, nset=Host, instance=Cube-1, generate
  1,  27,   1
*Elset, elset=Host, instance=Cube-1, generate
 1,  8,  1
*Nset, nset=Load, instance=Cube-1, generate
  1,  25,   3
*Elset, elset=Load, instance=Cube-1, generate
 1,  7,  2
*Nset, nset=MidY, instance=Cube-1, generate
  2,  26,   3
*Nset, nset=X, instance=Cube-1, generate
  3,  27,   3
*Elset, elset=X, instance=Cube-1, generate
 2,  8,  2
*Nset, nset=Y, instance=Cube-1
  1,  3,  4,  6,  7,  9, 10, 12, 13, 15, 16, 18, 19, 21, 22, 24
 25, 27
*Elset, elset=Y, instance=Cube-1, generate
 1,  8,  1
*Nset, nset=Z, instance=Cube-1, generate
  1,  27,   1
*Elset, elset=Z, instance=Cube-1, generate
 1,  8,  1
** Constraint: Embed-1
*Embedded Element, host elset=HOST
ALLFIBERS
*End Assembly
*Amplitude, name=Ramp
             0.,              0.,             0.1,              1.
** 
** MATERIALS
** 
*Material, name=NeoHooke
*Density
7800.,
*Hyperelastic, neo hooke
 3.846e+10, 1.1999e-11
** 
** BOUNDARY CONDITIONS
** 
** Name: Fix Type: Displacement/Rotation
*Boundary
Bottom, 2, 2
** ----------------------------------------------------------------
** 
** STEP: Step-1
** 
*Step, name=Step-1, nlgeom=YES
*Dynamic, Explicit, scale factor=0.5
, 0.1
*Bulk Viscosity
0.06, 1.2
** 
** BOUNDARY CONDITIONS
** 
** Name: Disp Type: Displacement/Rotation
*Boundary, amplitude=Ramp
Disp, 2, 2, 0.02
** 
** OUTPUT REQUESTS
** 
*Restart, write, number interval=1, time marks=NO
** 
** FIELD OUTPUT: F-Output-1
** 
*Output, field, variable=PRESELECT, number interval=200
** 
** HISTORY OUTPUT: H-Output-1
** 
*Output, history, variable=PRESELECT
*End Step
