*Heading
** Job name: KarthikeyanPlate_cae Model name: KarthikeyanPlate
** Generated by: Abaqus/CAE 2021
*Preprint, echo=NO, model=NO, history=NO, contact=NO
**
** PARTS
**
*Part, name=SteelProjectile
*Node
      1, 0.00347516732, -0.00243355986, 0.00347516732
      2,           0., 0.00793750025,           0.
      3,           0., -0.00476250006,           0.
      4,           0., -0.00243355986, 0.00491462881
      5, 0.00491462881, -0.00243355986,           0.
      6,           0., 0.00730834948,           0.
      7,           0., 0.0066980808,           0.
      8,           0., 0.00609388622,           0.
      9,           0., 0.00549189141,           0.
     10,           0., 0.00489068823,           0.
     11,           0., 0.00428977003,           0.
     12,           0., 0.00368895149,           0.
     13,           0., 0.00308816927,           0.
     14,           0., 0.00248739962,           0.
     15,           0., 0.0018866352,           0.
     16,           0., 0.00128587207,           0.
     17,           0., 0.000685109815,           0.
     18,           0., 8.43499438e-05,           0.
     19,           0., -0.000516407134,           0.
     20,           0., -0.00111715693,           0.
** ... 2771 like lines cut
*Element, type=C3D8R
   1,  149,  129,  130,  150, 1002,  982,  983, 1003
   2,  129,  149,   52,   53,  982, 1002,  509,  510
   3,  131,  151,  150,  130,  984, 1004, 1003,  983
   4,  201,  189,  187,  188, 1054, 1042, 1040, 1041
   5,  156,  134,  135,  158, 1009,  987,  988, 1011
   6,  219,  241,  190,  232, 1072, 1094, 1043, 1085
   7,  155,   47,   48,  186, 1008,  504,  505, 1039
   8,  133,  154,  153,  132,  986, 1007, 1006,  985
   9,  136,  159,  158,  135,  989, 1012, 1011,  988
  10,  183,  216,  192,  161, 1036, 1069, 1045, 1014
  11,   42,  183,  161,   41,  499, 1036, 1014,  498
  12,  137,  160,  159,  136,  990, 1013, 1012,  989
  13,  138,  162,  160,  137,  991, 1015, 1013,  990
  14,  221,  222,  214,  215, 1074, 1075, 1067, 1068
  15,  139,  163,  162,  138,  992, 1016, 1015,  991
  16,  213,  180,  164,  206, 1066, 1033, 1017, 1059
  17,  194,  195,  167,  179, 1047, 1048, 1020, 1032
  18,  141,  166,  165,  140,  994, 1019, 1018,  993
  19,  208,  233,  210,  197, 1061, 1086, 1063, 1050
  20,  198,  173,  177,  210, 1051, 1026, 1030, 1063
** ... 2176 like lines cut
*Element, type=C3D6
1099,   25,  290, 1143,    3,   26,  606
1100,   24,  291, 1144,   25,  290, 1143
1101,   23,  292, 1145,   24,  291, 1144
1102,   22,  293, 1146,   23,  292, 1145
1103,   21,  294, 1147,   22,  293, 1146
1104,   20,  295, 1148,   21,  294, 1147
1105,   19,  296, 1149,   20,  295, 1148
1106,   18,  297, 1150,   19,  296, 1149
1107,   17,  298, 1151,   18,  297, 1150
1108,   16,  299, 1152,   17,  298, 1151
1109,   15,  300, 1153,   16,  299, 1152
1110,   14,  301, 1154,   15,  300, 1153
1111,   13,  302, 1155,   14,  301, 1154
1112,   12,  303, 1156,   13,  302, 1155
1113,   11,  304, 1157,   12,  303, 1156
1114,   10,  305, 1158,   11,  304, 1157
1115,    9,  306, 1159,   10,  305, 1158
1116,    8,  307, 1160,    9,  306, 1159
1117,    7,  308, 1161,    8,  307, 1160
1118,    6,  309, 1162,    7,  308, 1161
** ... 304 like lines cut
*Nset, nset=All, generate
    1,  2791,     1
*Elset, elset=All, generate
    1,  2520,     1
*Nset, nset=Set-4, generate
    1,  2791,     1
*Elset, elset=Set-4, generate
    1,  2520,     1
** Region: (Projectile:Set-4), (Controls:EC-2)
*Elset, elset=_I1, internal
    1,    2,    3,    4,    5,    6,    7,    8,    9,   10,   11,   12,   13,   14,   15,   16
   17,   18,   19,   20,   21,   22,   23,   24,   25,   26,   27,   28,   29,   30,   31,   32
   33,   34,   35,   36,   37,   38,   39,   40,   41,   42,   43,   44,   45,   46,   47,   48
   49,   50,   51,   52,   53,   54,   55,   56,   57,   58,   59,   60,   61,   62,   63,   64
   65,   66,   67,   68,   69,   70,   71,   72,   73,   74,   75,   76,   77,   78,   79,   80
   81,   82,   83,   84,   85,   86,   87,   88,   89,   90,   91,   92,   93,   94,   95,   96
   97,   98,   99,  100,  101,  102,  103,  104,  105,  106,  107,  108,  109,  110,  111,  112
  113,  114,  115,  116,  117,  118,  119,  120,  121,  122,  123,  124,  125,  126,  127,  128
  129,  130,  131,  132,  133,  134,  135,  136,  137,  138,  139,  140,  141,  142,  143,  144
  145,  146,  147,  148,  149,  150,  151,  152,  153,  154,  155,  156,  157,  158,  159,  160
  161,  162,  163,  164,  165,  166,  167,  168,  169,  170,  171,  172,  173,  174,  175,  176
  177,  178,  179,  180,  181,  182,  183,  184,  185,  186,  187,  188,  189,  190,  191,  192
  193,  194,  195,  196,  197,  198,  199,  200,  201,  202,  203,  204,  205,  206,  207,  208
  209,  210,  211,  212,  213,  214,  215,  216,  217,  218,  219,  220,  221,  222,  223,  224
  225,  226,  227,  228,  229,  230,  231,  232,  233,  234,  235,  236,  237,  238,  239,  240
  241,  242,  243,  244,  245,  246,  247,  248,  249,  250,  251,  252,  253,  254,  255,  256
  257,  258,  259,  260,  261,  262,  263,  264,  265,  266,  267,  268,  269,  270,  271,  272
  273,  274,  275,  276,  277,  278,  279,  280,  281,  282,  283,  284,  285,  286,  287,  288
  289,  290,  291,  292,  293,  294,  295,  296,  297,  298,  299,  300,  301,  302,  303,  304
  305,  306,  307,  308,  309,  310,  311,  312,  313,  314,  315,  316,  317,  318,  319,  320
** ... 118 like lines cut
** Section: Projectile
*Solid Section, elset=_I1, controls=EC-2, material=SteelKarth
,
** Region: (Projectile:Set-4), (Controls:Default)
*Elset, elset=_I2, internal
 1099, 1100, 1101, 1102, 1103, 1104, 1105, 1106, 1107, 1108, 1109, 1110, 1111, 1112, 1113, 1114
 1115, 1116, 1117, 1118, 1119, 1120, 1121, 1122, 1123, 1124, 1125, 1126, 1127, 1128, 1129, 1130
 1131, 1132, 1133, 1134, 1135, 1136, 1137, 1138, 1139, 1140, 1141, 1142, 1143, 1144, 1145, 1146
 1147, 1148, 1149, 1150, 1151, 1152, 1153, 1154, 1155, 1156, 1157, 1158, 1159, 1160, 1161, 1162
 1163, 1164, 1165, 1166, 1167, 1168, 1169, 1170, 1171, 1172, 1173, 1174, 1175, 1176, 1177, 1178
 1179, 1180, 1181, 1182, 1183, 1184, 1185, 1186, 1187, 1188, 1189, 1190, 1191, 1192, 1193, 1194
 1195, 1196, 1197, 1198, 1199, 1200, 1201, 1202, 1203, 1204, 1205, 1206, 1207, 1208, 1209, 1210
 1211, 1212, 1213, 1214, 1215, 1216, 1217, 1218, 1219, 1220, 1221, 1222, 1223, 1224, 1225, 1226
 1227, 1228, 1229, 1230, 1231, 1232, 1233, 1234, 1235, 1236, 1237, 1238, 1239, 1240, 1241, 1242
 1243, 1244, 1245, 1246, 1247, 1248, 1249, 1250, 1251, 1252, 1253, 1254, 1255, 1256, 1257, 1258
 1259, 1260, 2359, 2360, 2361, 2362, 2363, 2364, 2365, 2366, 2367, 2368, 2369, 2370, 2371, 2372
 2373, 2374, 2375, 2376, 2377, 2378, 2379, 2380, 2381, 2382, 2383, 2384, 2385, 2386, 2387, 2388
 2389, 2390, 2391, 2392, 2393, 2394, 2395, 2396, 2397, 2398, 2399, 2400, 2401, 2402, 2403, 2404
 2405, 2406, 2407, 2408, 2409, 2410, 2411, 2412, 2413, 2414, 2415, 2416, 2417, 2418, 2419, 2420
 2421, 2422, 2423, 2424, 2425, 2426, 2427, 2428, 2429, 2430, 2431, 2432, 2433, 2434, 2435, 2436
 2437, 2438, 2439, 2440, 2441, 2442, 2443, 2444, 2445, 2446, 2447, 2448, 2449, 2450, 2451, 2452
 2453, 2454, 2455, 2456, 2457, 2458, 2459, 2460, 2461, 2462, 2463, 2464, 2465, 2466, 2467, 2468
 2469, 2470, 2471, 2472, 2473, 2474, 2475, 2476, 2477, 2478, 2479, 2480, 2481, 2482, 2483, 2484
 2485, 2486, 2487, 2488, 2489, 2490, 2491, 2492, 2493, 2494, 2495, 2496, 2497, 2498, 2499, 2500
 2501, 2502, 2503, 2504, 2505, 2506, 2507, 2508, 2509, 2510, 2511, 2512, 2513, 2514, 2515, 2516
 2517, 2518, 2519, 2520
** Section: Projectile
*Solid Section, elset=_I2, material=SteelKarth
,
*End Part
**
*Part, name=Fibers0
*Node
      1,     -0.074038,      0.000000,      0.000111
      2,     -0.074038,      0.011538,      0.000111
      3,     -0.073595,      0.000000,      0.000111
      4,     -0.073595,      0.013462,      0.000111
      5,     -0.073151,      0.000000,      0.000111
      6,     -0.073151,      0.007692,      0.000111
      7,     -0.073151,      0.015385,      0.000111
      8,     -0.072708,      0.000000,      0.000111
      9,     -0.072708,      0.008654,      0.000111
      10,     -0.072708,      0.017308,      0.000111
      11,     -0.072265,      0.000000,      0.000111
      12,     -0.072265,      0.009615,      0.000111
      13,     -0.072265,      0.019231,      0.000111
      14,     -0.071821,      0.000000,      0.000111
      15,     -0.071821,      0.010577,      0.000111
      16,     -0.071821,      0.021154,      0.000111
      17,     -0.071378,      0.000000,      0.000111
      18,     -0.071378,      0.010577,      0.000111
      19,     -0.071378,      0.021154,      0.000111
      20,     -0.070934,      0.000000,      0.000111
** ... 7911 like lines cut
*Element, type=T3D2
1, 1, 2
2, 3, 4
3, 5, 6
4, 6, 7
5, 8, 9
6, 9, 10
7, 11, 12
8, 12, 13
9, 14, 15
10, 15, 16
11, 17, 18
12, 18, 19
13, 20, 21
14, 21, 22
15, 23, 24
16, 24, 25
17, 25, 26
18, 27, 28
19, 28, 29
20, 29, 30
** ... 6742 like lines cut
*Nset, nset=Fib0, internal, generate
1, 7931, 1
*Elset, elset=Fib0, internal, generate
1, 6763, 1
**Section: TrussSection
*Solid Section, elset=Fib0, material=Fibers
1.134900E-07,
*End Part
**
*Part, name=Fibers90
*Node
      1,     -0.073077,      0.000962,      0.000554
      2,     -0.062637,      0.000962,      0.000554
      3,     -0.052198,      0.000962,      0.000554
      4,     -0.041758,      0.000962,      0.000554
      5,     -0.031319,      0.000962,      0.000554
      6,     -0.020879,      0.000962,      0.000554
      7,     -0.010440,      0.000962,      0.000554
      8,      0.000000,      0.000962,      0.000554
      9,     -0.073077,      0.001405,      0.000554
      10,     -0.062637,      0.001405,      0.000554
      11,     -0.052198,      0.001405,      0.000554
      12,     -0.041758,      0.001405,      0.000554
      13,     -0.031319,      0.001405,      0.000554
      14,     -0.020879,      0.001405,      0.000554
      15,     -0.010440,      0.001405,      0.000554
      16,      0.000000,      0.001405,      0.000554
      17,     -0.073077,      0.001849,      0.000554
      18,     -0.062637,      0.001849,      0.000554
      19,     -0.052198,      0.001849,      0.000554
      20,     -0.041758,      0.001849,      0.000554
** ... 7862 like lines cut
*Element, type=T3D2
1, 1, 2
2, 2, 3
3, 3, 4
4, 4, 5
5, 5, 6
6, 6, 7
7, 7, 8
8, 9, 10
9, 10, 11
10, 11, 12
11, 12, 13
12, 13, 14
13, 14, 15
14, 15, 16
15, 17, 18
16, 18, 19
17, 19, 20
18, 20, 21
19, 21, 22
20, 22, 23
** ... 6693 like lines cut
*Nset, nset=Fib90, internal, generate
1, 7882, 1
*Elset, elset=Fib90, internal, generate
1, 6714, 1
**Section: TrussSection
*Solid Section, elset=Fib90, material=Fibers
1.134900E-07,
*End Part
**  
*Part, name=TargetPlate
*Node
      1, -0.0500000007,           0., 0.00600000005
      2, -0.0199999996,           0., 0.00600000005
      3, -0.0190043487, 0.00623175129, 0.00600000005
      4,           0., 0.0199999996, 0.00600000005
      5, -0.0362757072, 0.0344103649, 0.00600000005
      6,           0., 0.0500000007, 0.00600000005
      7, -0.0199999996,           0.,           0.
      8,           0., 0.0199999996,           0.
      9,           0., 0.0500000007,           0.
     10, -0.0500000007,           0.,           0.
     11,           0.,           0., 0.00600000005
     12,           0.,           0.,           0.
     13,           0.,  0.075000003, 0.00600000005
     14, -0.075000003,           0., 0.00600000005
     15,           0.,  0.075000003,           0.
     16, -0.075000003,           0.,           0.
     17, -0.0474999994,           0., 0.00600000005
     18, -0.0450000018,           0., 0.00600000005
     19, -0.0425000004,           0., 0.00600000005
     20, -0.0399999991,           0., 0.00600000005
** ... 6077 like lines cut
*Element, type=C3D8R
   1,  168, 1140, 2503,  890,    1,   17,  340,   74
   2, 1140, 1141, 2504, 2503,   17,   18,  341,  340
   3, 1141, 1142, 2505, 2504,   18,   19,  342,  341
   4, 1142, 1143, 2506, 2505,   19,   20,  343,  342
   5, 1143, 1144, 2507, 2506,   20,   21,  344,  343
   6, 1144, 1145, 2508, 2507,   21,   22,  345,  344
   7, 1145, 1146, 2509, 2508,   22,   23,  346,  345
   8, 1146, 1147, 2510, 2509,   23,   24,  347,  346
   9, 1147, 1148, 2511, 2510,   24,   25,  348,  347
  10, 1148, 1149, 2512, 2511,   25,   26,  349,  348
  11, 1149, 1150, 2513, 2512,   26,   27,  350,  349
  12, 1150,  178, 1015, 2513,   27,    2,   28,  350
  13,  890, 2503, 2514,  891,   74,  340,  351,   73
  14, 2503, 2504, 2515, 2514,  340,  341,  352,  351
  15, 2504, 2505, 2516, 2515,  341,  342,  353,  352
  16, 2505, 2506, 2517, 2516,  342,  343,  354,  353
  17, 2506, 2507, 2518, 2517,  343,  344,  355,  354
  18, 2507, 2508, 2519, 2518,  344,  345,  356,  355
  19, 2508, 2509, 2520, 2519,  345,  346,  357,  356
  20, 2509, 2510, 2521, 2520,  346,  347,  358,  357
** ... 4894 like lines cut
*Nset, nset=_PickedSet103, internal, generate
    1,  6097,     1
*Elset, elset=_PickedSet103, internal, generate
    1,  4914,     1
*Orientation, name=Ori-1
1., 0., 0., 0., 1., 0.
1, 0.
** Section: Matrix
*Solid Section, elset=_PickedSet103, orientation=Ori-1, controls=EC-1, material=Matrix-Iso
,
*End Part
**  
**
** ASSEMBLY
**
*Assembly, name=Assembly
**  
*Instance, name=TargetPlate-1, part=TargetPlate
*End Instance
**
*Instance, name=Fibers0, part=Fibers0
0.000000E+00, 0.000000E+00, 0.000000E+00
*End Instance
**
*Instance, name=Fibers90, part=Fibers90
0.000000E+00, 0.000000E+00, 0.000000E+00
*End Instance
*Nset, nset=ALLFIBERS, instance=FIBERS0, generate
1, 7931, 1
*Nset, nset=ALLFIBERS, instance=FIBERS90, generate
1, 7882, 1
*Elset, elset=ALLFIBERS, instance=FIBERS0, generate
1, 6763, 1
*Elset, elset=ALLFIBERS, instance=FIBERS90, generate
1, 6714, 1
**  
*Instance, name=SteelProjectile-1, part=SteelProjectile
          0.,           0.,     0.014138
          0.,           0.,     0.014138, -0.577350279552042, -0.577350279552042, 0.591488279552042, 119.999999109416
*End Instance
**  
*Nset, nset=AllOutside, instance=TargetPlate-1
    1,    2,    3,    4,    5,    6,    7,    8,    9,   10,   11,   12,   13,   14,   15,   16
   17,   18,   19,   20,   21,   22,   23,   24,   25,   26,   27,   28,   29,   30,   31,   32
   33,   34,   35,   36,   37,   38,   39,   40,   41,   42,   43,   44,   45,   46,   47,   48
   49,   50,   51,   52,   53,   54,   55,   56,   57,   58,   59,   60,   61,   62,   63,   64
   65,   66,   67,   68,   69,   70,   71,   72,   73,   74,   75,   76,   77,   78,   79,   80
   81,   82,   83,   84,   85,   86,   87,   88,   89,   90,   91,   92,   93,   94,   95,   96
   97,  123,  124,  125,  126,  127,  128,  129,  130,  131,  132,  133,  134,  135,  136,  137
  138,  139,  140,  141,  142,  143,  144,  145,  146,  147,  148,  149,  150,  151,  152,  153
  154,  155,  156,  157,  158,  159,  160,  161,  162,  163,  164,  165,  166,  167,  168,  169
  170,  171,  172,  173,  174,  175,  176,  177,  178,  179,  180,  181,  182,  183,  184,  185
  186,  187,  188,  189,  190,  191,  192,  193,  194,  195,  196,  197,  198,  199,  200,  201
  202,  203,  204,  205,  206,  207,  208,  209,  210,  211,  212,  213,  214,  215,  216,  217
  218,  219,  220,  221,  222,  223,  224,  225,  226,  227,  228,  229,  230,  231,  232,  233
  234,  235,  236,  237,  238,  239,  240,  241,  242,  243,  244,  245,  246,  247,  248,  249
  250,  251,  252,  253,  254,  255,  256,  257,  258,  259,  260,  261,  262,  263,  264,  265
  266,  267,  268,  269,  270,  271,  272,  273,  274,  275,  276,  277,  278,  279,  280,  281
  282,  283,  284,  285,  286,  287,  288,  289,  290,  291,  292,  293,  294,  295,  296,  297
  298,  299,  300,  301,  302,  303,  304,  305,  306,  307,  308,  309,  310,  311,  312,  313
  314,  315,  316,  317,  318,  319,  320,  321,  322,  323,  324,  325,  326,  327,  328,  329
  330,  331,  332,  333,  334,  335,  336,  337,  338,  339,  340,  341,  342,  343,  344,  345
** ... 89 like lines cut
*Elset, elset=AllOutside, instance=TargetPlate-1
    1,    2,    3,    4,    5,    6,    7,    8,    9,   10,   11,   12,   13,   14,   15,   16
   17,   18,   19,   20,   21,   22,   23,   24,   25,   26,   27,   28,   29,   30,   31,   32
   33,   34,   35,   36,   37,   38,   39,   40,   41,   42,   43,   44,   45,   46,   47,   48
   49,   50,   51,   52,   53,   54,   55,   56,   57,   58,   59,   60,   61,   62,   63,   64
   65,   66,   67,   68,   69,   70,   71,   72,   73,   74,   75,   76,   77,   78,   79,   80
   81,   82,   83,   84,   85,   86,   87,   88,   89,   90,   91,   92,   93,   94,   95,   96
   97,   98,   99,  100,  101,  102,  103,  104,  105,  106,  107,  108,  109,  110,  111,  112
  113,  114,  115,  116,  117,  118,  119,  120,  121,  122,  123,  124,  125,  126,  127,  128
  129,  130,  131,  132,  133,  134,  135,  136,  137,  138,  139,  140,  141,  142,  143,  144
  145,  146,  147,  148,  149,  150,  151,  152,  153,  154,  155,  156,  157,  158,  159,  160
  161,  162,  163,  164,  165,  166,  167,  168,  169,  170,  171,  172,  173,  174,  175,  176
  177,  178,  179,  180,  181,  182,  183,  184,  185,  186,  187,  188,  189,  190,  191,  192
  193,  194,  195,  196,  197,  198,  199,  200,  201,  202,  203,  204,  205,  206,  207,  208
  209,  210,  211,  212,  213,  214,  215,  216,  217,  218,  219,  220,  221,  222,  223,  224
  225,  226,  227,  228,  229,  230,  231,  232,  233,  234,  235,  236,  237,  238,  239,  240
  241,  242,  243,  244,  245,  246,  247,  248,  249,  250,  251,  252,  253,  254,  255,  256
  257,  258,  259,  260,  261,  262,  263,  264,  265,  266,  267,  268,  269,  270,  271,  272
  273,  274,  275,  276,  277,  278,  279,  280,  281,  282,  283,  284,  285,  286,  287,  288
  289,  290,  291,  292,  293,  294,  295,  296,  297,  298,  299,  300,  301,  302,  303,  304
  305,  306,  307,  308,  309,  310,  311,  312,  313,  314,  315,  316,  317,  318,  319,  320
** ... 76 like lines cut
*Nset, nset=Clamp, instance=TargetPlate-1
    1,    5,    6,    9,   10,   13,   14,   15,   16,   63,   64,   65,   66,   67,   68,   69
   70,   71,   72,   73,   74,   75,   76,   77,   78,   79,   80,   81,   82,   83,   84,   85
   86,  134,  135,  136,  137,  138,  139,  140,  141,  142,  143,  144,  145,  146,  147,  148
  149,  150,  151,  152,  153,  154,  155,  156,  157,  158,  244,  245,  246,  247,  248,  249
  250,  251,  252,  253,  254,  255,  256,  257,  258,  259,  260,  261,  262,  263,  264,  265
  266,  267,  268,  269,  270,  271,  272,  273,  274,  275,  276,  277,  278,  279,  280,  281
  282,  283,  284,  285,  286,  287,  288,  289,  290,  291,  292,  293,  294,  295,  296,  297
  298,  299,  300,  301,  302,  303,  304,  305,  306,  307,  308,  309,  310,  311,  312,  313
  314,  315,  316,  317,  318,  319,  320,  321,  322,  323,  324,  325,  326,  327,  328,  329
 1838, 1839, 1840, 1841, 1842, 1843, 1844, 1845, 1846, 1847, 1848, 1849, 1850, 1851, 1852, 1853
 1854, 1855, 1856, 1857, 1858, 1859, 1860, 1861, 1862, 1863, 1864, 1865, 1866, 1867, 1868, 1869
 1870, 1871, 1872, 1873, 1874, 1875, 1876, 1877, 1878, 1879, 1880, 1881, 1882, 1883, 1884, 1885
 1886, 1887, 1888, 1889, 1890, 1891, 1892, 1893, 1894, 1895, 1896, 1897, 1898, 1899, 1900, 1901
 1902, 1903, 1904, 1905, 1906, 1907, 1908, 1909, 1910, 1911, 1912, 1913, 1914, 1915, 1916, 1917
 1918, 1919, 1920, 1921, 1922, 1923, 1924, 1925, 1926, 1927, 1928, 1929, 1930, 1931, 1932, 1933
 1934, 1935, 1936, 1937, 1938, 1939, 1940, 1941, 1942, 1943, 1944, 1945, 1946, 1947, 1948, 1949
 1950, 1951, 1952, 1953, 1954, 1955, 1956, 1957, 1958, 1959, 1960, 1961, 1962, 1963, 1964, 1965
 1966, 1967, 1968, 1969, 1970, 1971, 1972, 1973, 1974, 1975, 1976, 1977, 1978, 1979, 1980, 1981
 1982, 1983, 1984, 1985, 1986, 1987, 1988, 1989, 1990, 1991, 1992, 1993, 1994, 1995, 1996, 1997
 1998, 1999, 2000, 2001, 2002, 2003, 2004, 2005, 2006, 2007, 2008, 2009, 2010, 2011, 2012, 2013
** ... 18 like lines cut
*Elset, elset=Clamp, instance=TargetPlate-1
 3355, 3356, 3357, 3358, 3359, 3360, 3361, 3362, 3363, 3364, 3365, 3366, 3367, 3368, 3369, 3370
 3371, 3372, 3373, 3374, 3375, 3376, 3377, 3378, 3379, 3380, 3381, 3382, 3383, 3384, 3385, 3386
 3387, 3388, 3389, 3390, 3391, 3392, 3393, 3394, 3395, 3396, 3397, 3398, 3399, 3400, 3401, 3402
 3403, 3404, 3405, 3406, 3407, 3408, 3409, 3410, 3411, 3412, 3413, 3414, 3415, 3416, 3417, 3418
 3419, 3420, 3421, 3422, 3423, 3424, 3425, 3426, 3427, 3428, 3429, 3430, 3431, 3432, 3433, 3434
 3435, 3436, 3437, 3438, 3439, 3440, 3441, 3442, 3443, 3444, 3445, 3446, 3447, 3448, 3449, 3450
 3451, 3452, 3453, 3454, 3455, 3456, 3457, 3458, 3459, 3460, 3461, 3462, 3463, 3464, 3465, 3466
 3467, 3468, 3469, 3470, 3471, 3472, 3473, 3474, 3475, 3476, 3477, 3478, 3479, 3480, 3481, 3482
 3483, 3484, 3485, 3486, 3487, 3488, 3489, 3490, 3491, 3492, 3493, 3494, 3495, 3496, 3497, 3498
 3499, 3500, 3501, 3502, 3503, 3504, 3505, 3506, 3507, 3508, 3509, 3510, 3511, 3512, 3513, 3514
 3515, 3516, 3517, 3518, 3519, 3520, 3521, 3522, 3523, 3524, 3525, 3526, 3527, 3528, 3529, 3530
 3531, 3532, 3533, 3534, 3535, 3536, 3537, 3538, 3539, 3540, 3541, 3542, 3543, 3544, 3545, 3546
 3547, 3548, 3549, 3550, 3551, 3552, 3553, 3554, 3555, 3556, 3557, 3558, 3559, 3560, 3561, 3562
 3563, 3564, 3565, 3566, 3567, 3568, 3569, 3570, 3571, 3572, 3573, 3574, 3575, 3576, 3577, 3578
 3579, 3580, 3581, 3582, 3583, 3584, 3585, 3586, 3587, 3588, 3589, 3590, 3591, 3592, 3593, 3594
 3595, 3596, 3597, 3598, 3599, 3600, 3601, 3602, 3603, 3604, 3605, 3606, 3607, 3608, 3609, 3610
 3611, 3612, 3613, 3614, 4655, 4656, 4657, 4658, 4659, 4660, 4661, 4662, 4663, 4664, 4665, 4666
 4667, 4668, 4669, 4670, 4671, 4672, 4673, 4674, 4675, 4676, 4677, 4678, 4679, 4680, 4681, 4682
 4683, 4684, 4685, 4686, 4687, 4688, 4689, 4690, 4691, 4692, 4693, 4694, 4695, 4696, 4697, 4698
 4699, 4700, 4701, 4702, 4703, 4704, 4705, 4706, 4707, 4708, 4709, 4710, 4711, 4712, 4713, 4714
** ... 13 like lines cut
*Nset, nset=HOST, instance=TargetPlate-1, generate
    1,  6097,     1
*Elset, elset=HOST, instance=TargetPlate-1, generate
    1,  4914,     1
*Nset, nset=Observe, instance=TargetPlate-1
    1,    2,    3,    4,    5,    6,    7,    8,    9,   10,   11,   12,   17,   18,   19,   20
   21,   22,   23,   24,   25,   26,   27,   28,   29,   30,   31,   32,   33,   34,   35,   36
   37,   38,   39,   40,   41,   42,   43,   44,   45,   46,   47,   48,   49,   50,   51,   52
   53,   54,   55,   56,   57,   58,   59,   60,   61,   62,   63,   64,   65,   66,   67,   68
   69,   70,   71,   72,   73,   74,   75,   76,   77,   78,   79,   80,   81,   82,   83,   84
   85,   86,   87,   88,   89,   90,   91,   92,   93,   94,   95,   96,   97,   98,   99,  100
  101,  102,  103,  104,  105,  106,  107,  108,  109,  110,  111,  112,  113,  114,  115,  116
  117,  118,  119,  120,  121,  122,  123,  124,  125,  126,  127,  128,  129,  130,  131,  132
  133,  134,  135,  136,  137,  138,  139,  140,  141,  142,  143,  144,  145,  146,  147,  148
  149,  150,  151,  152,  153,  154,  155,  156,  157,  158,  159,  160,  161,  162,  163,  164
  165,  166,  167,  168,  169,  170,  171,  172,  173,  174,  175,  176,  177,  178,  179,  180
  181,  182,  183,  184,  185,  186,  187,  188,  189,  190,  191,  192,  193,  194,  195,  196
  197,  198,  199,  200,  201,  202,  203,  204,  205,  206,  207,  208,  209,  210,  211,  212
  213,  214,  215,  216,  217,  218,  219,  220,  221,  222,  223,  224,  225,  226,  227,  228
  229,  230,  231,  232,  233,  234,  235,  236,  237,  238,  239,  240,  241,  242,  243,  340
  341,  342,  343,  344,  345,  346,  347,  348,  349,  350,  351,  352,  353,  354,  355,  356
  357,  358,  359,  360,  361,  362,  363,  364,  365,  366,  367,  368,  369,  370,  371,  372
  373,  374,  375,  376,  377,  378,  379,  380,  381,  382,  383,  384,  385,  386,  387,  388
  389,  390,  391,  392,  393,  394,  395,  396,  397,  398,  399,  400,  401,  402,  403,  404
  405,  406,  407,  408,  409,  410,  411,  412,  413,  414,  415,  416,  417,  418,  419,  420
** ... 243 like lines cut
*Elset, elset=Observe, instance=TargetPlate-1, generate
    1,  3354,     1
*Nset, nset=SymmX, instance=TargetPlate-1
    4,    6,    8,    9,   11,   12,   13,   15,   52,   53,   54,   55,   56,   57,   58,   59
   60,   61,   62,  123,  124,  125,  126,  127,  128,  129,  130,  131,  132,  133,  159,  160
  161,  162,  163,  169,  170,  171,  172,  173,  194,  195,  196,  197,  198,  199,  200,  201
  202,  203,  204,  205,  206,  207,  208,  209,  210,  211,  212,  213,  214,  215,  216,  217
  218,  219,  220,  221,  222,  223,  224,  225,  226,  227,  228,  244,  245,  246,  247,  248
  249,  250,  251,  252,  287,  288,  289,  290,  291,  292,  293,  294,  295,  335,  336,  337
  338,  339, 1195, 1196, 1197, 1198, 1199, 1200, 1201, 1202, 1203, 1204, 1205, 1206, 1207, 1208
 1209, 1210, 1211, 1212, 1213, 1214, 1215, 1216, 1217, 1218, 1219, 1220, 1221, 1222, 1223, 1224
 1225, 1226, 1227, 1228, 1229, 1230, 1231, 1232, 1233, 1234, 1235, 1236, 1237, 1238, 1239, 1240
 1241, 1242, 1243, 1244, 1245, 1246, 1247, 1248, 1249, 1544, 1545, 1546, 1547, 1548, 1549, 1550
 1551, 1552, 1553, 1554, 1555, 1556, 1557, 1558, 1559, 1560, 1561, 1562, 1563, 1564, 1565, 1566
 1567, 1568, 1569, 1570, 1571, 1572, 1573, 1574, 1575, 1576, 1577, 1578, 1579, 1580, 1581, 1582
 1583, 1584, 1585, 1586, 1587, 1588, 1589, 1590, 1591, 1592, 1593, 1594, 1595, 1596, 1597, 1598
 1599, 1600, 1601, 1602, 1603, 1604, 1605, 1606, 1607, 1608, 1609, 1610, 1611, 1612, 1613, 1614
 1615, 1616, 1617, 1618, 2333, 2334, 2335, 2336, 2337, 2338, 2339, 2340, 2341, 2342, 2343, 2344
 2345, 2346, 2347, 2348, 2349, 2350, 2351, 2352, 2353, 2354, 2355, 2356, 2357, 2358, 2359, 2360
 2361, 2362, 2363, 2364, 2365, 2366, 2367, 2368, 2369, 2370, 2371, 2372, 2373, 2374, 2375, 2376
 2377,
*Nset, nset=SymmX, instance=SteelProjectile-1
   2,   3,   5,   6,   7,   8,   9,  10,  11,  12,  13,  14,  15,  16,  17,  18
  19,  20,  21,  22,  23,  24,  25,  98,  99, 100, 101, 102, 103, 104, 105, 106
 107, 108, 109, 110, 111, 112, 113, 114, 115, 116, 117, 118, 119, 120, 121, 122
 123, 124, 125, 126, 127, 128, 646, 647, 648, 649, 650, 651, 652, 653, 654, 655
 656, 657, 658, 659, 660, 661, 662, 663, 664, 665, 666, 667, 668, 669, 670, 671
 672, 673, 674, 675, 676, 677, 678, 679, 680, 681, 682, 683, 684, 685, 686, 687
 688, 689, 690, 691, 692, 693, 694, 695, 696, 697, 698, 699, 700, 701, 702, 703
 704, 705, 706, 707, 708, 709, 710, 711, 712, 713, 714, 715, 716, 717, 718, 719
 720, 721, 722, 723, 724, 725, 726, 727, 728, 729, 730, 731, 732, 733, 734, 735
 736, 737, 738, 739, 740, 741, 742, 743, 744, 745, 746, 747, 748, 749, 750, 751
 752, 753, 754, 755, 756, 757, 758, 759, 760, 761, 762, 763, 764, 765, 766, 767
 768, 769, 770, 771, 772, 773, 774, 775, 776, 777, 778, 779, 780, 781, 782, 783
 784, 785, 786, 787, 788, 789, 790, 791, 792, 793, 794, 795, 796, 797, 798, 799
 800, 801, 802, 803, 804, 805, 806, 807, 808, 809, 810, 811, 812, 813, 814, 815
 816, 817, 818, 819, 820, 821, 822, 823, 824, 825, 826
*Elset, elset=SymmX, instance=TargetPlate-1
  301,  302,  303,  304,  305,  306,  307,  308,  309,  310,  311,  312,  613,  614,  615,  616
  617,  618,  619,  620,  621,  622,  623,  624,  925,  926,  927,  928,  929,  930,  931,  932
  933,  934,  935,  936, 1237, 1238, 1239, 1240, 1241, 1242, 1243, 1244, 1245, 1246, 1247, 1248
 1549, 1550, 1551, 1552, 1553, 1554, 1555, 1556, 1557, 1558, 1559, 1560, 1861, 1862, 1863, 1864
 1865, 1866, 1867, 1868, 1869, 1870, 1871, 1872, 2002, 2015, 2028, 2041, 2054, 2067, 2080, 2093
 2106, 2119, 2132, 2145, 2158, 2171, 2184, 2197, 2210, 2223, 2236, 2249, 2262, 2275, 2288, 2301
 2314, 2327, 2340, 2353, 2366, 2379, 2392, 2405, 2418, 2431, 2444, 2457, 2470, 2483, 2496, 2497
 2498, 2499, 2536, 2537, 2538, 2575, 2576, 2577, 2614, 2615, 2616, 2653, 2654, 2655, 2692, 2693
 2694, 2848, 2849, 2850, 2851, 2852, 2853, 2854, 2855, 2856, 2857, 2858, 2859, 2860, 3017, 3018
 3019, 3020, 3021, 3022, 3023, 3024, 3025, 3026, 3027, 3028, 3029, 3186, 3187, 3188, 3189, 3190
 3191, 3192, 3193, 3194, 3195, 3196, 3197, 3198, 3380, 3406, 3432, 3458, 3484, 3510, 3536, 3562
 3588, 3614, 3640, 3666, 3692, 3718, 3744, 3770, 3796, 3822, 3848, 3874, 3900, 3926, 3952, 3978
 4004, 4030, 4056, 4082, 4108, 4134, 4160, 4186, 4212, 4238, 4264, 4290, 4316, 4342, 4368, 4394
 4420, 4446, 4472, 4498, 4524, 4550, 4576, 4602, 4628, 4654, 4680, 4706, 4732, 4758, 4784, 4810
 4836, 4862, 4888, 4914
*Elset, elset=SymmX, instance=SteelProjectile-1
 2176, 2177, 2178, 2179, 2180, 2181, 2182, 2183, 2184, 2185, 2186, 2187, 2188, 2189, 2190, 2191
 2192, 2193, 2194, 2195, 2196, 2197, 2198, 2199, 2200, 2201, 2202, 2203, 2204, 2205, 2206, 2207
 2208, 2209, 2210, 2211, 2212, 2213, 2214, 2215, 2216, 2217, 2218, 2219, 2220, 2221, 2222, 2223
 2224, 2225, 2226, 2227, 2228, 2229, 2230, 2231, 2232, 2233, 2234, 2235, 2236, 2237, 2238, 2239
 2240, 2241, 2242, 2243, 2244, 2245, 2246, 2247, 2248, 2249, 2250, 2251, 2252, 2253, 2254, 2255
 2256, 2257, 2258, 2259, 2260, 2261, 2262, 2263, 2264, 2265, 2266, 2267, 2268, 2269, 2270, 2271
 2272, 2273, 2274, 2275, 2276, 2277, 2278, 2279, 2280, 2281, 2282, 2283, 2284, 2285, 2286, 2287
 2288, 2289, 2290, 2291, 2292, 2293, 2294, 2295, 2296, 2297, 2298, 2299, 2300, 2301, 2302, 2303
 2304, 2305, 2306, 2307, 2308, 2309, 2310, 2311, 2312, 2313, 2314, 2315, 2316, 2317, 2318, 2319
 2320, 2321, 2322, 2323, 2324, 2325, 2326, 2327, 2328, 2329, 2330, 2331, 2332, 2333, 2334, 2335
 2336, 2337, 2338, 2339, 2340, 2341, 2342, 2343, 2344, 2345, 2346, 2347, 2348, 2349, 2350, 2351
 2352, 2353, 2354, 2355, 2356, 2357, 2358, 2464, 2465, 2466, 2467, 2468, 2469, 2470, 2471, 2472
 2473, 2474, 2475, 2476, 2477, 2478, 2479, 2480, 2481, 2482, 2483, 2484, 2515, 2516, 2517, 2518
 2519, 2520
*Nset, nset=Symmy, instance=TargetPlate-1
    1,    2,    7,   10,   11,   12,   14,   16,   17,   18,   19,   20,   21,   22,   23,   24
   25,   26,   27,   87,   88,   89,   90,   91,   92,   93,   94,   95,   96,   97,  164,  165
  166,  167,  168,  174,  175,  176,  177,  178,  179,  180,  181,  182,  183,  184,  185,  186
  187,  188,  189,  190,  191,  192,  193,  209,  210,  211,  212,  213,  229,  230,  231,  232
  233,  234,  235,  236,  237,  238,  239,  240,  241,  242,  243,  278,  279,  280,  281,  282
  283,  284,  285,  286,  321,  322,  323,  324,  325,  326,  327,  328,  329,  330,  331,  332
  333,  334, 1140, 1141, 1142, 1143, 1144, 1145, 1146, 1147, 1148, 1149, 1150, 1151, 1152, 1153
 1154, 1155, 1156, 1157, 1158, 1159, 1160, 1161, 1162, 1163, 1164, 1165, 1166, 1167, 1168, 1169
 1170, 1171, 1172, 1173, 1174, 1175, 1176, 1177, 1178, 1179, 1180, 1181, 1182, 1183, 1184, 1185
 1186, 1187, 1188, 1189, 1190, 1191, 1192, 1193, 1194, 1469, 1470, 1471, 1472, 1473, 1474, 1475
 1476, 1477, 1478, 1479, 1480, 1481, 1482, 1483, 1484, 1485, 1486, 1487, 1488, 1489, 1490, 1491
 1492, 1493, 1494, 1495, 1496, 1497, 1498, 1499, 1500, 1501, 1502, 1503, 1504, 1505, 1506, 1507
 1508, 1509, 1510, 1511, 1512, 1513, 1514, 1515, 1516, 1517, 1518, 1519, 1520, 1521, 1522, 1523
 1524, 1525, 1526, 1527, 1528, 1529, 1530, 1531, 1532, 1533, 1534, 1535, 1536, 1537, 1538, 1539
 1540, 1541, 1542, 1543, 2288, 2289, 2290, 2291, 2292, 2293, 2294, 2295, 2296, 2297, 2298, 2299
 2300, 2301, 2302, 2303, 2304, 2305, 2306, 2307, 2308, 2309, 2310, 2311, 2312, 2313, 2314, 2315
 2316, 2317, 2318, 2319, 2320, 2321, 2322, 2323, 2324, 2325, 2326, 2327, 2328, 2329, 2330, 2331
 2332,
*Nset, nset=Symmy, instance=SteelProjectile-1
   2,   3,   4,   6,   7,   8,   9,  10,  11,  12,  13,  14,  15,  16,  17,  18
  19,  20,  21,  22,  23,  24,  25,  62,  63,  64,  65,  66,  67,  68,  69,  70
  71,  72,  73,  74,  75,  76,  77,  78,  79,  80,  81,  82,  83,  84,  85,  86
  87,  88,  89,  90,  91,  92, 310, 311, 312, 313, 314, 315, 316, 317, 318, 319
 320, 321, 322, 323, 324, 325, 326, 327, 328, 329, 330, 331, 332, 333, 334, 335
 336, 337, 338, 339, 340, 341, 342, 343, 344, 345, 346, 347, 348, 349, 350, 351
 352, 353, 354, 355, 356, 357, 358, 359, 360, 361, 362, 363, 364, 365, 366, 367
 368, 369, 370, 371, 372, 373, 374, 375, 376, 377, 378, 379, 380, 381, 382, 383
 384, 385, 386, 387, 388, 389, 390, 391, 392, 393, 394, 395, 396, 397, 398, 399
 400, 401, 402, 403, 404, 405, 406, 407, 408, 409, 410, 411, 412, 413, 414, 415
 416, 417, 418, 419, 420, 421, 422, 423, 424, 425, 426, 427, 428, 429, 430, 431
 432, 433, 434, 435, 436, 437, 438, 439, 440, 441, 442, 443, 444, 445, 446, 447
 448, 449, 450, 451, 452, 453, 454, 455, 456, 457, 458, 459, 460, 461, 462, 463
 464, 465, 466, 467, 468, 469, 470, 471, 472, 473, 474, 475, 476, 477, 478, 479
 480, 481, 482, 483, 484, 485, 486, 487, 488, 489, 490
*Elset, elset=Symmy, instance=TargetPlate-1
    1,    2,    3,    4,    5,    6,    7,    8,    9,   10,   11,   12,  313,  314,  315,  316
  317,  318,  319,  320,  321,  322,  323,  324,  625,  626,  627,  628,  629,  630,  631,  632
  633,  634,  635,  636,  937,  938,  939,  940,  941,  942,  943,  944,  945,  946,  947,  948
 1249, 1250, 1251, 1252, 1253, 1254, 1255, 1256, 1257, 1258, 1259, 1260, 1561, 1562, 1563, 1564
 1565, 1566, 1567, 1568, 1569, 1570, 1571, 1572, 1873, 1874, 1875, 1912, 1913, 1914, 1951, 1952
 1953, 1990, 1991, 1992, 1993, 1994, 1995, 1996, 1997, 1998, 1999, 2000, 2001, 2002, 2159, 2160
 2161, 2162, 2163, 2164, 2165, 2166, 2167, 2168, 2169, 2170, 2171, 2328, 2329, 2330, 2331, 2332
 2333, 2334, 2335, 2336, 2337, 2338, 2339, 2340, 2743, 2756, 2769, 2782, 2795, 2808, 2821, 2834
 2847, 2860, 2873, 2886, 2899, 2912, 2925, 2938, 2951, 2964, 2977, 2990, 3003, 3016, 3029, 3042
 3055, 3068, 3081, 3094, 3107, 3120, 3133, 3146, 3159, 3172, 3185, 3198, 3211, 3224, 3237, 3250
 3263, 3276, 3289, 3302, 3315, 3328, 3341, 3354, 3355, 3381, 3407, 3433, 3459, 3485, 3511, 3537
 3563, 3589, 3615, 3641, 3667, 3693, 3719, 3745, 3771, 3797, 3823, 3849, 3875, 3901, 3927, 3953
 3979, 4005, 4031, 4057, 4083, 4109, 4135, 4161, 4187, 4213, 4239, 4265, 4291, 4317, 4343, 4369
 4395, 4421, 4447, 4473, 4499, 4525, 4551, 4577, 4603, 4629, 4655, 4681, 4707, 4733, 4759, 4785
 4811, 4837, 4863, 4889
*Elset, elset=Symmy, instance=SteelProjectile-1
  916,  917,  918,  919,  920,  921,  922,  923,  924,  925,  926,  927,  928,  929,  930,  931
  932,  933,  934,  935,  936,  937,  938,  939,  940,  941,  942,  943,  944,  945,  946,  947
  948,  949,  950,  951,  952,  953,  954,  955,  956,  957,  958,  959,  960,  961,  962,  963
  964,  965,  966,  967,  968,  969,  970,  971,  972,  973,  974,  975,  976,  977,  978,  979
  980,  981,  982,  983,  984,  985,  986,  987,  988,  989,  990,  991,  992,  993,  994,  995
  996,  997,  998,  999, 1000, 1001, 1002, 1003, 1004, 1005, 1006, 1007, 1008, 1009, 1010, 1011
 1012, 1013, 1014, 1015, 1016, 1017, 1018, 1019, 1020, 1021, 1022, 1023, 1024, 1025, 1026, 1027
 1028, 1029, 1030, 1031, 1032, 1033, 1034, 1035, 1036, 1037, 1038, 1039, 1040, 1041, 1042, 1043
 1044, 1045, 1046, 1047, 1048, 1049, 1050, 1051, 1052, 1053, 1054, 1055, 1056, 1057, 1058, 1059
 1060, 1061, 1062, 1063, 1064, 1065, 1066, 1067, 1068, 1069, 1070, 1071, 1072, 1073, 1074, 1075
 1076, 1077, 1078, 1079, 1080, 1081, 1082, 1083, 1084, 1085, 1086, 1087, 1088, 1089, 1090, 1091
 1092, 1093, 1094, 1095, 1096, 1097, 1098, 1204, 1205, 1206, 1207, 1208, 1209, 1210, 1211, 1212
 1213, 1214, 1215, 1216, 1217, 1218, 1219, 1220, 1221, 1222, 1223, 1224, 1255, 1256, 1257, 1258
 1259, 1260
*Elset, elset=_ALLCONT_S1, internal, instance=TargetPlate-1, generate
 4655,  4914,     1
*Elset, elset=_ALLCONT_S1, internal, instance=SteelProjectile-1
    1,    2,    3,    4,    5,    6,    7,    8,    9,   10,   11,   12,   13,   14,   15,   16
   17,   18,   19,   20,   21,   22,   23,   24,   25,   26,   27,   28,   29,   30,   31,   32
   33,   34,   35,   36,   37,   38,   39,   40,   41,   42,   43,   44,   45,   46,   47,   48
   49,   50,   51,   52,   53,   54,   55,   56,   57,   58,   59,   60,   61,   62,   63,   64
   65,   66,   67,   68,   69,   70,   71,   72,   73,   74,   75,   76,   77,   78,   79,   80
   81,   82,   83,   84,   85,   86,   87,   88,   89,   90,   91,   92,   93,   94,   95,   96
   97,   98,   99,  100,  101,  102,  103,  104,  105,  106,  107,  108,  109,  110,  111,  112
  113,  114,  115,  116,  117,  118,  119,  120,  121,  122,  123,  124,  125,  126,  127,  128
  129,  130,  131,  132,  133,  134,  135,  136,  137,  138,  139,  140,  141,  142,  143,  144
  145,  146,  147,  148,  149,  150,  151,  152,  153,  154,  155,  156,  157,  158,  159,  160
  161,  162,  163,  164,  165,  166,  167,  168,  169,  170,  171,  172,  173,  174,  175,  176
  177,  178,  179,  180,  181,  182,  183, 1119, 1140, 1161, 1182, 1203, 1224, 1225, 1226, 1227
 1228, 1229, 1230, 1261, 1262, 1263, 1264, 1265, 1266, 1267, 1268, 1269, 1270, 1271, 1272, 1273
 1274, 1275, 1276, 1277, 1278, 1279, 1280, 1281, 1282, 1283, 1284, 1285, 1286, 1287, 1288, 1289
 1290, 1291, 1292, 1293, 1294, 1295, 1296, 1297, 1298, 1299, 1300, 1301, 1302, 1303, 1304, 1305
 1306, 1307, 1308, 1309, 1310, 1311, 1312, 1313, 1314, 1315, 1316, 1317, 1318, 1319, 1320, 1321
 1322, 1323, 1324, 1325, 1326, 1327, 1328, 1329, 1330, 1331, 1332, 1333, 1334, 1335, 1336, 1337
 1338, 1339, 1340, 1341, 1342, 1343, 1344, 1345, 1346, 1347, 1348, 1349, 1350, 1351, 1352, 1353
 1354, 1355, 1356, 1357, 1358, 1359, 1360, 1361, 1362, 1363, 1364, 1365, 1366, 1367, 1368, 1369
 1370, 1371, 1372, 1373, 1374, 1375, 1376, 1377, 1378, 1379, 1380, 1381, 1382, 1383, 1384, 1385
** ... 5 like lines cut
*Elset, elset=_ALLCONT_S6, internal, instance=TargetPlate-1
    1,   13,   25,   37,   49,   61,   73,   85,   97,  109,  121,  133,  145,  157,  169,  181
  193,  205,  217,  229,  241,  253,  265,  277,  289,  301,  313,  325,  337,  349,  361,  373
  385,  397,  409,  421,  433,  445,  457,  469,  481,  493,  505,  517,  529,  541,  553,  565
  577,  589,  601,  613,  625,  637,  649,  661,  673,  685,  697,  709,  721,  733,  745,  757
  769,  781,  793,  805,  817,  829,  841,  853,  865,  877,  889,  901,  913,  925,  937,  949
  961,  973,  985,  997, 1009, 1021, 1033, 1045, 1057, 1069, 1081, 1093, 1105, 1117, 1129, 1141
 1153, 1165, 1177, 1189, 1201, 1213, 1225, 1237, 1249, 1261, 1273, 1285, 1297, 1309, 1321, 1333
 1345, 1357, 1369, 1381, 1393, 1405, 1417, 1429, 1441, 1453, 1465, 1477, 1489, 1501, 1513, 1525
 1537, 1549, 1561, 1573, 1585, 1597, 1609, 1621, 1633, 1645, 1657, 1669, 1681, 1693, 1705, 1717
 1729, 1741, 1753, 1765, 1777, 1789, 1801, 1813, 1825, 1837, 1849, 1861, 3355, 3381, 3407, 3433
 3459, 3485, 3511, 3537, 3563, 3589, 3615, 3641, 3667, 3693, 3719, 3745, 3771, 3797, 3823, 3849
 3875, 3901, 3927, 3953, 3979, 4005, 4031, 4057, 4083, 4109, 4135, 4161, 4187, 4213, 4239, 4265
 4291, 4317, 4343, 4369, 4395, 4421, 4447, 4473, 4499, 4525, 4551, 4577, 4603, 4629, 4655, 4681
 4707, 4733, 4759, 4785, 4811, 4837, 4863, 4889
*Elset, elset=_ALLCONT_S6, internal, instance=SteelProjectile-1
   11,   23,   26,   27,   28,   29,   31,   33,   34,   35,   49,   52,  121,  142,  163,  194
  206,  209,  210,  211,  212,  214,  216,  217,  218,  232,  235,  304,  325,  346,  377,  389
  392,  393,  394,  395,  397,  399,  400,  401,  415,  418,  487,  508,  529,  560,  572,  575
  576,  577,  578,  580,  582,  583,  584,  598,  601,  670,  691,  712,  743,  755,  758,  759
  760,  761,  763,  765,  766,  767,  781,  784,  853,  874,  895,  926,  938,  941,  942,  943
  944,  946,  948,  949,  950,  964,  967, 1036, 1057, 1078, 1299, 1304, 1482, 1487, 1665, 1670
 1848, 1853, 2031, 2036, 2214, 2219
*Elset, elset=_ALLCONT_S2, internal, instance=TargetPlate-1
    1,    2,    3,    4,    5,    6,    7,    8,    9,   10,   11,   12,   13,   14,   15,   16
   17,   18,   19,   20,   21,   22,   23,   24,   25,   26,   27,   28,   29,   30,   31,   32
   33,   34,   35,   36,   37,   38,   39,   40,   41,   42,   43,   44,   45,   46,   47,   48
   49,   50,   51,   52,   53,   54,   55,   56,   57,   58,   59,   60,   61,   62,   63,   64
   65,   66,   67,   68,   69,   70,   71,   72,   73,   74,   75,   76,   77,   78,   79,   80
   81,   82,   83,   84,   85,   86,   87,   88,   89,   90,   91,   92,   93,   94,   95,   96
   97,   98,   99,  100,  101,  102,  103,  104,  105,  106,  107,  108,  109,  110,  111,  112
  113,  114,  115,  116,  117,  118,  119,  120,  121,  122,  123,  124,  125,  126,  127,  128
  129,  130,  131,  132,  133,  134,  135,  136,  137,  138,  139,  140,  141,  142,  143,  144
  145,  146,  147,  148,  149,  150,  151,  152,  153,  154,  155,  156,  157,  158,  159,  160
  161,  162,  163,  164,  165,  166,  167,  168,  169,  170,  171,  172,  173,  174,  175,  176
  177,  178,  179,  180,  181,  182,  183,  184,  185,  186,  187,  188,  189,  190,  191,  192
  193,  194,  195,  196,  197,  198,  199,  200,  201,  202,  203,  204,  205,  206,  207,  208
  209,  210,  211,  212,  213,  214,  215,  216,  217,  218,  219,  220,  221,  222,  223,  224
  225,  226,  227,  228,  229,  230,  231,  232,  233,  234,  235,  236,  237,  238,  239,  240
  241,  242,  243,  244,  245,  246,  247,  248,  249,  250,  251,  252,  253,  254,  255,  256
  257,  258,  259,  260,  261,  262,  263,  264,  265,  266,  267,  268,  269,  270,  271,  272
  273,  274,  275,  276,  277,  278,  279,  280,  281,  282,  283,  284,  285,  286,  287,  288
  289,  290,  291,  292,  293,  294,  295,  296,  297,  298,  299,  300,  301,  302,  303,  304
  305,  306,  307,  308,  309,  310,  311,  312, 1873, 1874, 1875, 1876, 1877, 1878, 1879, 1880
** ... 32 like lines cut
*Elset, elset=_ALLCONT_S2, internal, instance=SteelProjectile-1
  916,  917,  918,  919,  920,  921,  922,  923,  924,  925,  926,  927,  928,  929,  930,  931
  932,  933,  934,  935,  936,  937,  938,  939,  940,  941,  942,  943,  944,  945,  946,  947
  948,  949,  950,  951,  952,  953,  954,  955,  956,  957,  958,  959,  960,  961,  962,  963
  964,  965,  966,  967,  968,  969,  970,  971,  972,  973,  974,  975,  976,  977,  978,  979
  980,  981,  982,  983,  984,  985,  986,  987,  988,  989,  990,  991,  992,  993,  994,  995
  996,  997,  998,  999, 1000, 1001, 1002, 1003, 1004, 1005, 1006, 1007, 1008, 1009, 1010, 1011
 1012, 1013, 1014, 1015, 1016, 1017, 1018, 1019, 1020, 1021, 1022, 1023, 1024, 1025, 1026, 1027
 1028, 1029, 1030, 1031, 1032, 1033, 1034, 1035, 1036, 1037, 1038, 1039, 1040, 1041, 1042, 1043
 1044, 1045, 1046, 1047, 1048, 1049, 1050, 1051, 1052, 1053, 1054, 1055, 1056, 1057, 1058, 1059
 1060, 1061, 1062, 1063, 1064, 1065, 1066, 1067, 1068, 1069, 1070, 1071, 1072, 1073, 1074, 1075
 1076, 1077, 1078, 1079, 1080, 1081, 1082, 1083, 1084, 1085, 1086, 1087, 1088, 1089, 1090, 1091
 1092, 1093, 1094, 1095, 1096, 1097, 1098, 1099, 1120, 1141, 1162, 1183, 1204, 1255, 1256, 1257
 1258, 1259, 1260, 2176, 2177, 2178, 2179, 2180, 2181, 2182, 2183, 2184, 2185, 2186, 2187, 2188
 2189, 2190, 2191, 2192, 2193, 2194, 2195, 2196, 2197, 2198, 2199, 2200, 2201, 2202, 2203, 2204
 2205, 2206, 2207, 2208, 2209, 2210, 2211, 2212, 2213, 2214, 2215, 2216, 2217, 2218, 2219, 2220
 2221, 2222, 2223, 2224, 2225, 2226, 2227, 2228, 2229, 2230, 2231, 2232, 2233, 2234, 2235, 2236
 2237, 2238, 2239, 2240, 2241, 2242, 2243, 2244, 2245, 2246, 2247, 2248, 2249, 2250, 2251, 2252
 2253, 2254, 2255, 2256, 2257, 2258, 2259, 2260, 2261, 2262, 2263, 2264, 2265, 2266, 2267, 2268
 2269, 2270, 2271, 2272, 2273, 2274, 2275, 2276, 2277, 2278, 2279, 2280, 2281, 2282, 2283, 2284
 2285, 2286, 2287, 2288, 2289, 2290, 2291, 2292, 2293, 2294, 2295, 2296, 2297, 2298, 2299, 2300
** ... 5 like lines cut
*Elset, elset=_ALLCONT_S5, internal, instance=TargetPlate-1
 3589, 3590, 3591, 3592, 3593, 3594, 3595, 3596, 3597, 3598, 3599, 3600, 3601, 3602, 3603, 3604
 3605, 3606, 3607, 3608, 3609, 3610, 3611, 3612, 3613, 3614, 3849, 3850, 3851, 3852, 3853, 3854
 3855, 3856, 3857, 3858, 3859, 3860, 3861, 3862, 3863, 3864, 3865, 3866, 3867, 3868, 3869, 3870
 3871, 3872, 3873, 3874, 4109, 4110, 4111, 4112, 4113, 4114, 4115, 4116, 4117, 4118, 4119, 4120
 4121, 4122, 4123, 4124, 4125, 4126, 4127, 4128, 4129, 4130, 4131, 4132, 4133, 4134, 4369, 4370
 4371, 4372, 4373, 4374, 4375, 4376, 4377, 4378, 4379, 4380, 4381, 4382, 4383, 4384, 4385, 4386
 4387, 4388, 4389, 4390, 4391, 4392, 4393, 4394, 4629, 4630, 4631, 4632, 4633, 4634, 4635, 4636
 4637, 4638, 4639, 4640, 4641, 4642, 4643, 4644, 4645, 4646, 4647, 4648, 4649, 4650, 4651, 4652
 4653, 4654, 4889, 4890, 4891, 4892, 4893, 4894, 4895, 4896, 4897, 4898, 4899, 4900, 4901, 4902
 4903, 4904, 4905, 4906, 4907, 4908, 4909, 4910, 4911, 4912, 4913, 4914
*Elset, elset=_ALLCONT_S5, internal, instance=SteelProjectile-1
    2,   37,   38,   42,  185,  220,  221,  225,  368,  403,  404,  408,  551,  586,  587,  591
  734,  769,  770,  774,  917,  952,  953,  957, 1204, 1205, 1206, 1207, 1208, 1209, 1210, 1211
 1212, 1213, 1214, 1215, 1216, 1217, 1218, 1219, 1220, 1221, 1222, 1223, 1224, 1267, 1285, 1306
 1313, 1317, 1321, 1323, 1401, 1422, 1443, 1450, 1468, 1489, 1496, 1500, 1504, 1506, 1584, 1605
 1626, 1633, 1651, 1672, 1679, 1683, 1687, 1689, 1767, 1788, 1809, 1816, 1834, 1855, 1862, 1866
 1870, 1872, 1950, 1971, 1992, 1999, 2017, 2038, 2045, 2049, 2053, 2055, 2133, 2154, 2175, 2182
 2200, 2221, 2228, 2232, 2236, 2238, 2316, 2337, 2358, 2464, 2465, 2466, 2467, 2468, 2469, 2470
 2471, 2472, 2473, 2474, 2475, 2476, 2477, 2478, 2479, 2480, 2481, 2482, 2483, 2484
*Elset, elset=_ALLCONT_S4, internal, instance=TargetPlate-1, generate
 3380,  4914,    26
*Elset, elset=_ALLCONT_S4, internal, instance=SteelProjectile-1
    7,   25,   46,   53,   57,   61,   63,  141,  162,  183,  190,  208,  229,  236,  240,  244
  246,  324,  345,  366,  373,  391,  412,  419,  423,  427,  429,  507,  528,  549,  556,  574
  595,  602,  606,  610,  612,  690,  711,  732,  739,  757,  778,  785,  789,  793,  795,  873
  894,  915,  922,  940,  961,  968,  972,  976,  978, 1056, 1077, 1098, 1262, 1297, 1298, 1302
 1445, 1480, 1481, 1485, 1628, 1663, 1664, 1668, 1811, 1846, 1847, 1851, 1994, 2029, 2030, 2034
 2177, 2212, 2213, 2217
*Elset, elset=_ALLCONT_S3, internal, instance=TargetPlate-1
 3355, 3356, 3357, 3358, 3359, 3360, 3361, 3362, 3363, 3364, 3365, 3366, 3367, 3368, 3369, 3370
 3371, 3372, 3373, 3374, 3375, 3376, 3377, 3378, 3379, 3380, 3615, 3616, 3617, 3618, 3619, 3620
 3621, 3622, 3623, 3624, 3625, 3626, 3627, 3628, 3629, 3630, 3631, 3632, 3633, 3634, 3635, 3636
 3637, 3638, 3639, 3640, 3875, 3876, 3877, 3878, 3879, 3880, 3881, 3882, 3883, 3884, 3885, 3886
 3887, 3888, 3889, 3890, 3891, 3892, 3893, 3894, 3895, 3896, 3897, 3898, 3899, 3900, 4135, 4136
 4137, 4138, 4139, 4140, 4141, 4142, 4143, 4144, 4145, 4146, 4147, 4148, 4149, 4150, 4151, 4152
 4153, 4154, 4155, 4156, 4157, 4158, 4159, 4160, 4395, 4396, 4397, 4398, 4399, 4400, 4401, 4402
 4403, 4404, 4405, 4406, 4407, 4408, 4409, 4410, 4411, 4412, 4413, 4414, 4415, 4416, 4417, 4418
 4419, 4420, 4655, 4656, 4657, 4658, 4659, 4660, 4661, 4662, 4663, 4664, 4665, 4666, 4667, 4668
 4669, 4670, 4671, 4672, 4673, 4674, 4675, 4676, 4677, 4678, 4679, 4680
*Elset, elset=_ALLCONT_S3, internal, instance=SteelProjectile-1
   39,   44,  222,  227,  405,  410,  588,  593,  771,  776,  954,  959, 1099, 1100, 1101, 1102
 1103, 1104, 1105, 1106, 1107, 1108, 1109, 1110, 1111, 1112, 1113, 1114, 1115, 1116, 1117, 1118
 1119, 1271, 1283, 1286, 1287, 1288, 1289, 1291, 1293, 1294, 1295, 1309, 1312, 1381, 1402, 1423
 1454, 1466, 1469, 1470, 1471, 1472, 1474, 1476, 1477, 1478, 1492, 1495, 1564, 1585, 1606, 1637
 1649, 1652, 1653, 1654, 1655, 1657, 1659, 1660, 1661, 1675, 1678, 1747, 1768, 1789, 1820, 1832
 1835, 1836, 1837, 1838, 1840, 1842, 1843, 1844, 1858, 1861, 1930, 1951, 1972, 2003, 2015, 2018
 2019, 2020, 2021, 2023, 2025, 2026, 2027, 2041, 2044, 2113, 2134, 2155, 2186, 2198, 2201, 2202
 2203, 2204, 2206, 2208, 2209, 2210, 2224, 2227, 2296, 2317, 2338, 2359, 2360, 2361, 2362, 2363
 2364, 2365, 2366, 2367, 2368, 2369, 2370, 2371, 2372, 2373, 2374, 2375, 2376, 2377, 2378, 2379
*Surface, type=ELEMENT, name=ALLCONT
_ALLCONT_S1, S1
_ALLCONT_S6, S6
_ALLCONT_S2, S2
_ALLCONT_S4, S4
_ALLCONT_S5, S5
_ALLCONT_S3, S3
** Constraint: Embed-1
*Embedded Element, host elset=HOST
ALLFIBERS
*End Assembly
** 
** ELEMENT CONTROLS
** 
*Section Controls, name=EC-1, ELEMENT DELETION=YES, MAX DEGRADATION=0.05
1., 1., 1.
*Section Controls, name=EC-2, ELEMENT DELETION=YES
1., 1., 1.
** 
** MATERIALS
** 
*Material, name=FIBERS_Fail
*Damage Initiation, criterion=DUCTILE
 0.03,   0., 0.01
*Damage Evolution, type=ENERGY
1.,
*Density
981.,
*Elastic
 2e+08, 0.3
*Plastic
 2.5e+09,0.
*Rate Dependent
1., 0.08
*Material, name=Fibers
*Density
981.,
*Elastic
 2e+08, 0.3
*Material, name=HardSteel
*Density
8000.,
*Elastic
 4e+11, 0.3
*Material, name=Matrix
*Density
308.,
*Elastic, type=ORTHOTROPIC
 4.2e+10, 2.4e+09, 4.2e+10, 2.7e+09, 2.7e+09, 4.6e+09,   4e+08,   4e+08
   9e+08,
*Material, name=Matrix-Iso
*Density
308.,
*Elastic, type=ORTHOTROPIC
 4.6e+10, 2.4e+09, 4.6e+10, 2.4e+09, 2.4e+09, 4.6e+09,   9e+08,   9e+08
   9e+08,
*Material, name=Polyurethane
*Density
980.,
*Elastic
 5.0776e+06,0.
*Plastic
     611343.,        0.
     663262., 0.0101742
     708155., 0.0198202
     753051., 0.0302479
     797940., 0.0419179
     842825., 0.0559543
     887708., 0.0735315
     932591.,  0.095815
     977476.,  0.122588
 1.02236e+06,   0.15079
 1.06725e+06,  0.177094
 1.11214e+06,  0.201089
 1.15702e+06,  0.225864
 1.20191e+06,  0.254717
 1.24679e+06,  0.290236
 1.29168e+06,  0.329759
 1.33656e+06,  0.368304
 1.38145e+06,   0.40377
 1.42634e+06,   0.43864
 1.47122e+06,  0.475688
** ... 71 like lines cut
** Properties from Matweb: AISI Type M50 Tool Steel
*Material, name=SteelKarth
*Damage Initiation, criterion=DUCTILE
 0.198, 0.33333,  0.0002
*Damage Evolution, type=ENERGY
201000.,
*Density
 7738.7,
*Elastic
 2.034e+11, 0.3
*Plastic
 1.894e+09,0.
** 
** INTERACTION PROPERTIES
** 
*Surface Interaction, name=IntProp-1
*Friction
 0.42,
** 
** BOUNDARY CONDITIONS
** 
** Name: Clamp Type: Symmetry/Antisymmetry/Encastre
*Boundary
Clamp, ENCASTRE
** Name: SymmX Type: Symmetry/Antisymmetry/Encastre
*Boundary
SymmX, XSYMM
** Name: Symmy Type: Symmetry/Antisymmetry/Encastre
*Boundary
Symmy, YSYMM
** 
** PREDEFINED FIELDS
** 
** Name: ProjectileVel   Type: Velocity
*Initial Conditions, type=VELOCITY
SteelProjectile-1.All, 1, 0.
SteelProjectile-1.All, 2, 0.
SteelProjectile-1.All, 3, -250.
** ----------------------------------------------------------------
** 
** STEP: Step-1
** 
*Step, name=Step-1, nlgeom=YES
*Dynamic, Explicit
, 0.00019
*Bulk Viscosity
0.06, 1.2
** 
** INTERACTIONS
** 
** Interaction: GeneralContact
*Contact, op=NEW
*Contact Inclusions
ALLCONT , 
*Contact Property Assignment
 ,  , IntProp-1
** 
** OUTPUT REQUESTS
** 
*Restart, write, number interval=1, time marks=NO
** 
** FIELD OUTPUT: F-Output-1
** 
*Output, field, number interval=200
*Node Output
A, U, V
*Element Output, directions=YES
CFAILURE, DMICRT, ER, LE, MISES, PE, PEEQ, S, SDEG, SEQUT, STATUS
*Contact Output
CSTRESS, 
** 
** HISTORY OUTPUT: H-Output-1
** 
*Output, history, variable=PRESELECT
*End Step
