*Heading
** Job name: RussellTensile-1-5 Model name: RussellTensile-1-5
** Generated by: Abaqus/CAE 2021
*Preprint, echo=NO, model=NO, history=NO, contact=NO
**
** PARTS
**
*Part, name=Gauge
*Node
      1, -0.0250000004, -0.00200000009, 0.00600000005
      2, -0.0250000004, -0.00100000005, 0.00600000005
      3, -0.0250000004,           0., 0.00600000005
      4, -0.0250000004, 0.00100000005, 0.00600000005
      5, -0.0250000004, 0.00200000009, 0.00600000005
      6, -0.0250000004, -0.00200000009, 0.00480000023
      7, -0.0250000004, -0.00100000005, 0.00480000023
      8, -0.0250000004,           0., 0.00480000023
      9, -0.0250000004, 0.00100000005, 0.00480000023
     10, -0.0250000004, 0.00200000009, 0.00480000023
     11, -0.0250000004, -0.00200000009, 0.00359999994
     12, -0.0250000004, -0.00100000005, 0.00359999994
     13, -0.0250000004,           0., 0.00359999994
     14, -0.0250000004, 0.00100000005, 0.00359999994
     15, -0.0250000004, 0.00200000009, 0.00359999994
     16, -0.0250000004, -0.00200000009, 0.00240000011
     17, -0.0250000004, -0.00100000005, 0.00240000011
     18, -0.0250000004,           0., 0.00240000011
     19, -0.0250000004, 0.00100000005, 0.00240000011
     20, -0.0250000004, 0.00200000009, 0.00240000011
** ... 1270 like lines cut
*Element, type=C3D8R
  1,   31,   32,   37,   36,    1,    2,    7,    6
  2,   32,   33,   38,   37,    2,    3,    8,    7
  3,   33,   34,   39,   38,    3,    4,    9,    8
  4,   34,   35,   40,   39,    4,    5,   10,    9
  5,   36,   37,   42,   41,    6,    7,   12,   11
  6,   37,   38,   43,   42,    7,    8,   13,   12
  7,   38,   39,   44,   43,    8,    9,   14,   13
  8,   39,   40,   45,   44,    9,   10,   15,   14
  9,   41,   42,   47,   46,   11,   12,   17,   16
 10,   42,   43,   48,   47,   12,   13,   18,   17
 11,   43,   44,   49,   48,   13,   14,   19,   18
 12,   44,   45,   50,   49,   14,   15,   20,   19
 13,   46,   47,   52,   51,   16,   17,   22,   21
 14,   47,   48,   53,   52,   17,   18,   23,   22
 15,   48,   49,   54,   53,   18,   19,   24,   23
 16,   49,   50,   55,   54,   19,   20,   25,   24
 17,   51,   52,   57,   56,   21,   22,   27,   26
 18,   52,   53,   58,   57,   22,   23,   28,   27
 19,   53,   54,   59,   58,   23,   24,   29,   28
 20,   54,   55,   60,   59,   24,   25,   30,   29
** ... 820 like lines cut
*Nset, nset=Set-1, generate
    1,  1290,     1
*Elset, elset=Set-1, generate
   1,  840,    1
** Section: Gauge
*Solid Section, elset=Set-1, material=MATRIX-NEOHOOKE
,
*End Part
**
*Part, name=Fibers0
*Node
      1,     -0.024699,     -0.002000,      0.000301
      2,     -0.024699,     -0.001950,      0.000301
      3,     -0.024699,     -0.001900,      0.000301
      4,     -0.024699,     -0.001850,      0.000301
      5,     -0.024699,     -0.001800,      0.000301
      6,     -0.024699,     -0.001750,      0.000301
      7,     -0.024699,     -0.001700,      0.000301
      8,     -0.024699,     -0.001650,      0.000301
      9,     -0.024699,     -0.001600,      0.000301
      10,     -0.024699,     -0.001550,      0.000301
      11,     -0.024699,     -0.001500,      0.000301
      12,     -0.024699,     -0.001450,      0.000301
      13,     -0.024699,     -0.001400,      0.000301
      14,     -0.024699,     -0.001350,      0.000301
      15,     -0.024699,     -0.001300,      0.000301
      16,     -0.024699,     -0.001250,      0.000301
      17,     -0.024699,     -0.001200,      0.000301
      18,     -0.024699,     -0.001150,      0.000301
      19,     -0.024699,     -0.001100,      0.000301
      20,     -0.024699,     -0.001050,      0.000301
** ... 10186 like lines cut
*Element, type=T3D2
1, 1, 2
2, 2, 3
3, 3, 4
4, 4, 5
5, 5, 6
6, 6, 7
7, 7, 8
8, 8, 9
9, 9, 10
10, 10, 11
11, 11, 12
12, 12, 13
13, 13, 14
14, 14, 15
15, 15, 16
16, 16, 17
17, 17, 18
18, 18, 19
19, 19, 20
20, 20, 21
** ... 10060 like lines cut
*Nset, nset=Fib0, internal, generate
1, 10206, 1
*Elset, elset=Fib0, internal, generate
1, 10081, 1
**Section: TrussSection
*Solid Section, elset=Fib0, material=Fibers
1.134900E-06,
*End Part
**
*Part, name=Fibers90
*Node
      1,     -0.025000,     -0.001699,      0.001503
      2,     -0.024950,     -0.001699,      0.001503
      3,     -0.024900,     -0.001699,      0.001503
      4,     -0.024850,     -0.001699,      0.001503
      5,     -0.024800,     -0.001699,      0.001503
      6,     -0.024750,     -0.001699,      0.001503
      7,     -0.024700,     -0.001699,      0.001503
      8,     -0.024650,     -0.001699,      0.001503
      9,     -0.024600,     -0.001699,      0.001503
      10,     -0.024550,     -0.001699,      0.001503
      11,     -0.024500,     -0.001699,      0.001503
      12,     -0.024450,     -0.001699,      0.001503
      13,     -0.024400,     -0.001699,      0.001503
      14,     -0.024350,     -0.001699,      0.001503
      15,     -0.024300,     -0.001699,      0.001503
      16,     -0.024250,     -0.001699,      0.001503
      17,     -0.024200,     -0.001699,      0.001503
      18,     -0.024150,     -0.001699,      0.001503
      19,     -0.024100,     -0.001699,      0.001503
      20,     -0.024050,     -0.001699,      0.001503
** ... 5986 like lines cut
*Element, type=T3D2
1, 1, 2
2, 2, 3
3, 3, 4
4, 4, 5
5, 5, 6
6, 6, 7
7, 7, 8
8, 8, 9
9, 9, 10
10, 10, 11
11, 11, 12
12, 12, 13
13, 13, 14
14, 14, 15
15, 15, 16
16, 16, 17
17, 17, 18
18, 18, 19
19, 19, 20
20, 20, 21
** ... 5980 like lines cut
*Nset, nset=Fib90, internal, generate
1, 6006, 1
*Elset, elset=Fib90, internal, generate
1, 6001, 1
**Section: TrussSection
*Solid Section, elset=Fib90, material=Fibers
1.134900E-06,
*End Part
**  
**
** ASSEMBLY
**
*Assembly, name=Assembly
**  
*Instance, name=Gauge-1, part=Gauge
*End Instance
**
*Instance, name=Fibers0, part=Fibers0
0.000000E+00, 0.000000E+00, 0.000000E+00
*End Instance
**
*Instance, name=Fibers90, part=Fibers90
0.000000E+00, 0.000000E+00, 0.000000E+00
*End Instance
*Nset, nset=ALLFIBERS, instance=FIBERS0, generate
1, 10206, 1
*Nset, nset=ALLFIBERS, instance=FIBERS90, generate
1, 6006, 1
*Elset, elset=ALLFIBERS, instance=FIBERS0, generate
1, 10081, 1
*Elset, elset=ALLFIBERS, instance=FIBERS90, generate
1, 6001, 1
**  
*Nset, nset=Disp, instance=Gauge-1, generate
 1261,  1290,     1
*Elset, elset=Disp, instance=Gauge-1, generate
 821,  840,    1
*Nset, nset=Fixed, instance=Gauge-1, generate
  1,  30,   1
*Elset, elset=Fixed, instance=Gauge-1, generate
  1,  20,   1
*Nset, nset=Host, instance=Gauge-1, generate
    1,  1290,     1
*Elset, elset=Host, instance=Gauge-1, generate
   1,  840,    1
*Elset, elset=Output, instance=Gauge-1
 341, 342, 343, 344, 345, 346, 347, 348, 349, 350, 351, 352, 353, 354, 355, 356
 357, 358, 359, 360, 361, 362, 363, 364, 365, 366, 367, 368, 369, 370, 371, 372
 373, 374, 375, 376, 377, 378, 379, 380, 381, 382, 383, 384, 385, 386, 387, 388
 389, 390, 391, 392, 393, 394, 395, 396, 397, 398, 399, 400, 401, 402, 403, 404
 405, 406, 407, 408, 409, 410, 411, 412, 413, 414, 415, 416, 417, 418, 419, 420
 821, 822, 823, 824, 825, 826, 827, 828, 829, 830, 831, 832, 833, 834, 835, 836
 837, 838, 839, 840
*Nset, nset=Outside, instance=Gauge-1, generate
    1,  1290,     1
*Elset, elset=Outside, instance=Gauge-1, generate
   1,  840,    1
** Constraint: Embed-1
*Embedded Element, host elset=HOST
ALLFIBERS
*End Assembly
*Amplitude, name=Amp-1
             0.,              0.,             0.1,              1.
** 
** MATERIALS
** 
*Material, name=FIBERS
*Density
981.,
*Elastic
 1.3e+11, 0.49
*Material, name=MATRIX-NEOHOOKE
*Density
1100.,
*Hyperelastic, neo hooke
 2.1154e+08, 2.182e-09
*Material, name=NEOHOOKE
*Density
 7.8e+09,
*Hyperelastic, neo hooke
 3.846e+10, 1.1999e-11
** 
** BOUNDARY CONDITIONS
** 
** Name: Fixed Type: Displacement/Rotation
*Boundary
Fixed, 1, 1
** ----------------------------------------------------------------
** 
** STEP: Step-1
** 
*Step, name=Step-1, nlgeom=YES
*Dynamic, Explicit
, 0.1
*Bulk Viscosity
0.06, 1.2
** 
** BOUNDARY CONDITIONS
** 
** Name: Disp Type: Displacement/Rotation
*Boundary, amplitude=Amp-1
Disp, 1, 1, 0.001
** 
** OUTPUT REQUESTS
** 
*Restart, write, number interval=1, time marks=NO
** 
** FIELD OUTPUT: F-Output-1
** 
*Output, field, number interval=100
*Node Output
A, RF, U, V
*Element Output, directions=YES
ER, EVF, LE, PE, PEEQ, PEEQVAVG, PEVAVG, S, SVAVG
*Contact Output
CSTRESS, 
** 
** HISTORY OUTPUT: H-Output-1
** 
*Output, history, variable=PRESELECT, time interval=0.001
*End Step
