*Heading
** Job name: RussellTensile-1-5 Model name: RussellTensile-1-5
** Generated by: Abaqus/CAE 2021
*Preprint, echo=NO, model=NO, history=NO, contact=NO
**
** PARTS
**
*Part, name=Gauge
*Node
      1, -0.0250000004, -0.00200000009, 0.00600000005
      2, -0.0250000004, -0.00100000005, 0.00600000005
      3, -0.0250000004,           0., 0.00600000005
      4, -0.0250000004, 0.00100000005, 0.00600000005
      5, -0.0250000004, 0.00200000009, 0.00600000005
      6, -0.0250000004, -0.00200000009, 0.00480000023
      7, -0.0250000004, -0.00100000005, 0.00480000023
      8, -0.0250000004,           0., 0.00480000023
      9, -0.0250000004, 0.00100000005, 0.00480000023
     10, -0.0250000004, 0.00200000009, 0.00480000023
     11, -0.0250000004, -0.00200000009, 0.00359999994
     12, -0.0250000004, -0.00100000005, 0.00359999994
     13, -0.0250000004,           0., 0.00359999994
     14, -0.0250000004, 0.00100000005, 0.00359999994
     15, -0.0250000004, 0.00200000009, 0.00359999994
     16, -0.0250000004, -0.00200000009, 0.00240000011
     17, -0.0250000004, -0.00100000005, 0.00240000011
     18, -0.0250000004,           0., 0.00240000011
     19, -0.0250000004, 0.00100000005, 0.00240000011
     20, -0.0250000004, 0.00200000009, 0.00240000011
** ... 1270 like lines cut
*Element, type=C3D8R
  1,   31,   32,   37,   36,    1,    2,    7,    6
  2,   32,   33,   38,   37,    2,    3,    8,    7
  3,   33,   34,   39,   38,    3,    4,    9,    8
  4,   34,   35,   40,   39,    4,    5,   10,    9
  5,   36,   37,   42,   41,    6,    7,   12,   11
  6,   37,   38,   43,   42,    7,    8,   13,   12
  7,   38,   39,   44,   43,    8,    9,   14,   13
  8,   39,   40,   45,   44,    9,   10,   15,   14
  9,   41,   42,   47,   46,   11,   12,   17,   16
 10,   42,   43,   48,   47,   12,   13,   18,   17
 11,   43,   44,   49,   48,   13,   14,   19,   18
 12,   44,   45,   50,   49,   14,   15,   20,   19
 13,   46,   47,   52,   51,   16,   17,   22,   21
 14,   47,   48,   53,   52,   17,   18,   23,   22
 15,   48,   49,   54,   53,   18,   19,   24,   23
 16,   49,   50,   55,   54,   19,   20,   25,   24
 17,   51,   52,   57,   56,   21,   22,   27,   26
 18,   52,   53,   58,   57,   22,   23,   28,   27
 19,   53,   54,   59,   58,   23,   24,   29,   28
 20,   54,   55,   60,   59,   24,   25,   30,   29
** ... 820 like lines cut
*Nset, nset=Set-1, generate
    1,  1290,     1
*Elset, elset=Set-1, generate
   1,  840,    1
** Section: Gauge
*Solid Section, elset=Set-1, material=NeoHooke
,
*End Part
**
*Part, name=Fibers0
*Node
      1,     -0.024359,     -0.002000,      0.000351
      2,     -0.024359,      0.002000,      0.000351
      3,     -0.022957,     -0.002000,      0.000351
      4,     -0.022957,      0.002000,      0.000351
      5,     -0.021554,     -0.002000,      0.000351
      6,     -0.021554,      0.002000,      0.000351
      7,     -0.020152,     -0.002000,      0.000351
      8,     -0.020152,      0.002000,      0.000351
      9,     -0.018749,     -0.002000,      0.000351
      10,     -0.018749,      0.002000,      0.000351
      11,     -0.017347,     -0.002000,      0.000351
      12,     -0.017347,      0.002000,      0.000351
      13,     -0.015944,     -0.002000,      0.000351
      14,     -0.015944,      0.002000,      0.000351
      15,     -0.014542,     -0.002000,      0.000351
      16,     -0.014542,      0.002000,      0.000351
      17,     -0.013140,     -0.002000,      0.000351
      18,     -0.013140,      0.002000,      0.000351
      19,     -0.011737,     -0.002000,      0.000351
      20,     -0.011737,      0.002000,      0.000351
** ... 196 like lines cut
*Element, type=T3D2
1, 1, 2
2, 3, 4
3, 5, 6
4, 7, 8
5, 9, 10
6, 11, 12
7, 13, 14
8, 15, 16
9, 17, 18
10, 19, 20
11, 21, 22
12, 23, 24
13, 25, 26
14, 27, 28
15, 29, 30
16, 31, 32
17, 33, 34
18, 35, 36
19, 37, 38
20, 39, 40
** ... 88 like lines cut
*Nset, nset=Fib0, internal, generate
1, 216, 1
*Elset, elset=Fib0, internal, generate
1, 109, 1
**Section: TrussSection
*Solid Section, elset=Fib0, material=Fibers
1.134900E-06,
*End Part
**
*Part, name=Fibers90
*Node
      1,     -0.025000,     -0.001949,      0.001753
      2,     -0.015000,     -0.001949,      0.001753
      3,     -0.005000,     -0.001949,      0.001753
      4,      0.005000,     -0.001949,      0.001753
      5,      0.015000,     -0.001949,      0.001753
      6,      0.025000,     -0.001949,      0.001753
      7,     -0.025000,     -0.000546,      0.001753
      8,     -0.015000,     -0.000546,      0.001753
      9,     -0.005000,     -0.000546,      0.001753
      10,      0.005000,     -0.000546,      0.001753
      11,      0.015000,     -0.000546,      0.001753
      12,      0.025000,     -0.000546,      0.001753
      13,     -0.025000,      0.000856,      0.001753
      14,     -0.015000,      0.000856,      0.001753
      15,     -0.005000,      0.000856,      0.001753
      16,      0.005000,      0.000856,      0.001753
      17,      0.015000,      0.000856,      0.001753
      18,      0.025000,      0.000856,      0.001753
      19,     -0.025000,     -0.001949,      0.004558
      20,     -0.015000,     -0.001949,      0.004558
** ... 16 like lines cut
*Element, type=T3D2
1, 1, 2
2, 2, 3
3, 3, 4
4, 4, 5
5, 5, 6
6, 7, 8
7, 8, 9
8, 9, 10
9, 10, 11
10, 11, 12
11, 13, 14
12, 14, 15
13, 15, 16
14, 16, 17
15, 17, 18
16, 19, 20
17, 20, 21
18, 21, 22
19, 22, 23
20, 23, 24
** ... 10 like lines cut
*Nset, nset=Fib90, internal, generate
1, 36, 1
*Elset, elset=Fib90, internal, generate
1, 31, 1
**Section: TrussSection
*Solid Section, elset=Fib90, material=Fibers
1.134900E-06,
*End Part
**  
**
** ASSEMBLY
**
*Assembly, name=Assembly
**  
*Instance, name=Gauge-1, part=Gauge
*End Instance
**
*Instance, name=Fibers0, part=Fibers0
0.000000E+00, 0.000000E+00, 0.000000E+00
*End Instance
**
*Instance, name=Fibers90, part=Fibers90
0.000000E+00, 0.000000E+00, 0.000000E+00
*End Instance
*Nset, nset=ALLFIBERS, instance=FIBERS0, generate
1, 216, 1
*Nset, nset=ALLFIBERS, instance=FIBERS90, generate
1, 36, 1
*Elset, elset=ALLFIBERS, instance=FIBERS0, generate
1, 109, 1
*Elset, elset=ALLFIBERS, instance=FIBERS90, generate
1, 31, 1
**  
*Nset, nset=Disp, instance=Gauge-1, generate
 1261,  1290,     1
*Elset, elset=Disp, instance=Gauge-1, generate
 821,  840,    1
*Nset, nset=Fixed, instance=Gauge-1, generate
  1,  30,   1
*Elset, elset=Fixed, instance=Gauge-1, generate
  1,  20,   1
*Nset, nset=Host, instance=Gauge-1, generate
    1,  1290,     1
*Elset, elset=Host, instance=Gauge-1, generate
   1,  840,    1
*Elset, elset=Output, instance=Gauge-1
 341, 342, 343, 344, 345, 346, 347, 348, 349, 350, 351, 352, 353, 354, 355, 356
 357, 358, 359, 360, 361, 362, 363, 364, 365, 366, 367, 368, 369, 370, 371, 372
 373, 374, 375, 376, 377, 378, 379, 380, 381, 382, 383, 384, 385, 386, 387, 388
 389, 390, 391, 392, 393, 394, 395, 396, 397, 398, 399, 400, 401, 402, 403, 404
 405, 406, 407, 408, 409, 410, 411, 412, 413, 414, 415, 416, 417, 418, 419, 420
 821, 822, 823, 824, 825, 826, 827, 828, 829, 830, 831, 832, 833, 834, 835, 836
 837, 838, 839, 840
*Nset, nset=Outside, instance=Gauge-1, generate
    1,  1290,     1
*Elset, elset=Outside, instance=Gauge-1, generate
   1,  840,    1
** Constraint: Embed-1
*Embedded Element, host elset=HOST
ALLFIBERS
*End Assembly
*Amplitude, name=Amp-1
             0.,              0.,             0.1,              1.
** 
** MATERIALS
** 
*Material, name=Fibers
*Density
7800.,
*Elastic
 2e+11, 0.3
*Material, name=NeoHooke
*Density
 7.8e+09,
*Hyperelastic, neo hooke
 3.846e+10, 1.1999e-11
** 
** BOUNDARY CONDITIONS
** 
** Name: Fixed Type: Displacement/Rotation
*Boundary
Fixed, 1, 1
** ----------------------------------------------------------------
** 
** STEP: Step-1
** 
*Step, name=Step-1, nlgeom=YES
*Dynamic, Explicit
, 0.1
*Bulk Viscosity
0.06, 1.2
** 
** BOUNDARY CONDITIONS
** 
** Name: Disp Type: Displacement/Rotation
*Boundary, amplitude=Amp-1
Disp, 1, 1, 0.001
** 
** OUTPUT REQUESTS
** 
*Restart, write, number interval=1, time marks=NO
** 
** FIELD OUTPUT: F-Output-1
** 
*Output, field, number interval=100
*Node Output
A, RF, U, V
*Element Output, directions=YES
ER, EVF, LE, PE, PEEQ, PEEQVAVG, PEVAVG, S, SVAVG
*Contact Output
CSTRESS, 
** 
** HISTORY OUTPUT: H-Output-1
** 
*Output, history, variable=PRESELECT, time interval=0.001
*End Step
