*Heading
** Job name: SmallTension_Speed Model name: SmallTension
** Generated by: Abaqus/CAE 2022
*Preprint, echo=NO, model=NO, history=NO, contact=NO
**
** PARTS
**
*Part, name=Part-1
*Node
      1, 0.00499999989, 0.00720849726, 0.00300000003
      2, 0.00249999994, 0.00720849726, 0.00300000003
      3, -2.84703008e-11, 0.00720849726, 0.00300000003
      4, -0.00249999994, 0.00720849726, 0.00300000003
      5, -0.00499999989, 0.00720849726, 0.00300000003
      6, -0.00749999983, 0.00720849726, 0.00300000003
      7, -0.00999999978, 0.00720849726, 0.00300000003
      8, -0.0125000002, 0.00720849726, 0.00300000003
      9, -0.0149999997, 0.00720849726, 0.00300000003
     10, 0.00499999989, 0.00720849726, 0.00150000001
     11, 0.00249999994, 0.00720849726, 0.00150000001
     12, -2.84703025e-11, 0.00720849726, 0.00150000001
     13, -0.00249999994, 0.00720849726, 0.00150000001
     14, -0.00499999989, 0.00720849726, 0.00150000001
     15, -0.00749999983, 0.00720849726, 0.00150000001
     16, -0.00999999978, 0.00720849726, 0.00150000001
     17, -0.0125000002, 0.00720849726, 0.00150000001
     18, -0.0149999997, 0.00720849726, 0.00150000001
     19, 0.00499999989, 0.00720849726,           0.
     20, 0.00249999994, 0.00720849726,           0.
** ... 61 like lines cut
*Element, type=C3D8R
 1, 28, 29, 38, 37,  1,  2, 11, 10
 2, 29, 30, 39, 38,  2,  3, 12, 11
 3, 30, 31, 40, 39,  3,  4, 13, 12
 4, 31, 32, 41, 40,  4,  5, 14, 13
 5, 32, 33, 42, 41,  5,  6, 15, 14
 6, 33, 34, 43, 42,  6,  7, 16, 15
 7, 34, 35, 44, 43,  7,  8, 17, 16
 8, 35, 36, 45, 44,  8,  9, 18, 17
 9, 37, 38, 47, 46, 10, 11, 20, 19
10, 38, 39, 48, 47, 11, 12, 21, 20
11, 39, 40, 49, 48, 12, 13, 22, 21
12, 40, 41, 50, 49, 13, 14, 23, 22
13, 41, 42, 51, 50, 14, 15, 24, 23
14, 42, 43, 52, 51, 15, 16, 25, 24
15, 43, 44, 53, 52, 16, 17, 26, 25
16, 44, 45, 54, 53, 17, 18, 27, 26
17, 55, 56, 65, 64, 28, 29, 38, 37
18, 56, 57, 66, 65, 29, 30, 39, 38
19, 57, 58, 67, 66, 30, 31, 40, 39
20, 58, 59, 68, 67, 31, 32, 41, 40
** ... 12 like lines cut
*Nset, nset=Set-5, generate
  1,  81,   1
*Elset, elset=Set-5, generate
  1,  32,   1
** Section: NeoHooke
*Solid Section, elset=Set-5, material=NeoHooke
,
*End Part
**
*Part, name=Fibers0
*Node
      1,     -0.014665,      0.007522,      0.000335
      2,     -0.014665,      0.010208,      0.000335
      3,     -0.013327,      0.007522,      0.000335
      4,     -0.013327,      0.010208,      0.000335
      5,     -0.011988,      0.007522,      0.000335
      6,     -0.011988,      0.010208,      0.000335
      7,     -0.010650,      0.007522,      0.000335
      8,     -0.010650,      0.010208,      0.000335
      9,     -0.009311,      0.007522,      0.000335
      10,     -0.009311,      0.010208,      0.000335
      11,     -0.007972,      0.007522,      0.000335
      12,     -0.007972,      0.010208,      0.000335
      13,     -0.006634,      0.007522,      0.000335
      14,     -0.006634,      0.010208,      0.000335
      15,     -0.005295,      0.007522,      0.000335
      16,     -0.005295,      0.010208,      0.000335
      17,     -0.003957,      0.007522,      0.000335
      18,     -0.003957,      0.010208,      0.000335
      19,     -0.002618,      0.007522,      0.000335
      20,     -0.002618,      0.010208,      0.000335
** ... 10 like lines cut
*Element, type=T3D2
1, 1, 2
2, 3, 4
3, 5, 6
4, 7, 8
5, 9, 10
6, 11, 12
7, 13, 14
8, 15, 16
9, 17, 18
10, 19, 20
11, 21, 22
12, 23, 24
13, 25, 26
14, 27, 28
15, 29, 30
*Nset, nset=Fib0, internal, generate
1, 30, 1
*Elset, elset=Fib0, internal, generate
1, 16, 1
**Section: TrussSection
*Solid Section, elset=Fib0, material=Fibers
1.407276E-06,
*End Part
**
*Part, name=Fibers90
*Node
      1,     -0.015000,      0.008366,      0.001673
      2,     -0.012500,      0.008366,      0.001673
      3,     -0.010000,      0.008366,      0.001673
      4,     -0.007500,      0.008366,      0.001673
      5,     -0.005000,      0.008366,      0.001673
      6,     -0.002500,      0.008366,      0.001673
      7,     -0.000000,      0.008366,      0.001673
      8,      0.002500,      0.008366,      0.001673
      9,      0.005000,      0.008366,      0.001673
      10,     -0.015000,      0.009705,      0.001673
      11,     -0.012500,      0.009705,      0.001673
      12,     -0.010000,      0.009705,      0.001673
      13,     -0.007500,      0.009705,      0.001673
      14,     -0.005000,      0.009705,      0.001673
      15,     -0.002500,      0.009705,      0.001673
      16,     -0.000000,      0.009705,      0.001673
      17,      0.002500,      0.009705,      0.001673
      18,      0.005000,      0.009705,      0.001673
*Element, type=T3D2
1, 1, 2
2, 2, 3
3, 3, 4
4, 4, 5
5, 5, 6
6, 6, 7
7, 7, 8
8, 8, 9
9, 10, 11
10, 11, 12
11, 12, 13
12, 13, 14
13, 14, 15
14, 15, 16
15, 16, 17
16, 17, 18
*Nset, nset=Fib90, internal, generate
1, 18, 1
*Elset, elset=Fib90, internal, generate
1, 17, 1
**Section: TrussSection
*Solid Section, elset=Fib90, material=Fibers
1.407276E-06,
*End Part
**  
**
** ASSEMBLY
**
*Assembly, name=Assembly
**  
*Instance, name=Part-1-1, part=Part-1
*End Instance
**
*Instance, name=Fibers0, part=Fibers0
0.000000E+00, 0.000000E+00, 0.000000E+00
*End Instance
**
*Instance, name=Fibers90, part=Fibers90
0.000000E+00, 0.000000E+00, 0.000000E+00
*End Instance
*Nset, nset=ALLFIBERS, instance=FIBERS0, generate
1, 30, 1
*Nset, nset=ALLFIBERS, instance=FIBERS90, generate
1, 18, 1
*Elset, elset=ALLFIBERS, instance=FIBERS0, generate
1, 16, 1
*Elset, elset=ALLFIBERS, instance=FIBERS90, generate
1, 17, 1
*Nset, nset=Disp, instance=Part-1-1, generate
  1,  73,   9
*Elset, elset=Disp, instance=Part-1-1, generate
  1,  25,   8
*Nset, nset=Fix, instance=Part-1-1, generate
  9,  81,   9
*Elset, elset=Fix, instance=Part-1-1, generate
  8,  32,   8
*Nset, nset=HOST, instance=Part-1-1, generate
  1,  81,   1
*Elset, elset=HOST, instance=Part-1-1, generate
  1,  32,   1
*Nset, nset=Outside, instance=Part-1-1
  1,  2,  3,  4,  5,  6,  7,  8,  9, 10, 11, 12, 13, 14, 15, 16
 17, 18, 19, 20, 21, 22, 23, 24, 25, 26, 27, 28, 29, 30, 31, 32
 33, 34, 35, 36, 37, 45, 46, 47, 48, 49, 50, 51, 52, 53, 54, 55
 56, 57, 58, 59, 60, 61, 62, 63, 64, 65, 66, 67, 68, 69, 70, 71
 72, 73, 74, 75, 76, 77, 78, 79, 80, 81
*Elset, elset=Outside, instance=Part-1-1, generate
  1,  32,   1
** Constraint: Embed-1
*Embedded Element, host elset=HOST
ALLFIBERS
*End Assembly
*Amplitude, name=Amp-1
             0.,              0.,              1.,              1.
** 
** MATERIALS
** 
*Material, name=FIBERS
*Density
981.,
*Elastic
 2e+08, 0.3
*Material, name=NeoHooke
*Density
7800.,
*Hyperelastic, neo hooke
 3.846e+10, 1.1999e-11
** 
** BOUNDARY CONDITIONS
** 
** Name: Fix Type: Displacement/Rotation
*Boundary
Fix, 1, 1
** ----------------------------------------------------------------
** 
** STEP: Step-1
** 
*Step, name=Step-1, nlgeom=YES
*Dynamic, Explicit
, 0.75,, 0.1
*Bulk Viscosity
0.06, 1.2
** 
** BOUNDARY CONDITIONS
** 
** Name: Disp Type: Velocity/Angular velocity
*Boundary, type=VELOCITY
Disp, 1, 1, 0.003
** 
** OUTPUT REQUESTS
** 
*Restart, write, number interval=1, time marks=NO
** 
** FIELD OUTPUT: F-Output-1
** 
*Output, field, number interval=50
*Node Output
A, RF, U, V
*Element Output, directions=YES
DMICRT, ER, EVF, LE, PE, PEEQ, PEEQVAVG, PEVAVG, S, SDEG, STATUS, SVAVG
*Contact Output
CSTRESS, 
** 
** HISTORY OUTPUT: H-Output-1
** 
*Output, history, variable=PRESELECT
*End Step
