*Heading
** Job name: FlagshypCube_8h_0t_PureShear Model name: Cube-Copy
** Generated by: Abaqus/CAE 2019
*Preprint, echo=NO, model=NO, history=NO, contact=NO
**
** PARTS
**
*Part, name=Cube
*Node
      1,           1.,           1.,           1.
      2,           1.,          0.5,           1.
      3,           1.,           0.,           1.
      4,           1.,           1.,          0.5
      5,           1.,          0.5,          0.5
      6,           1.,           0.,          0.5
      7,           1.,           1.,           0.
      8,           1.,          0.5,           0.
      9,           1.,           0.,           0.
     10,          0.5,           1.,           1.
     11,          0.5,          0.5,           1.
     12,          0.5,           0.,           1.
     13,          0.5,           1.,          0.5
     14,          0.5,          0.5,          0.5
     15,          0.5,           0.,          0.5
     16,          0.5,           1.,           0.
     17,          0.5,          0.5,           0.
     18,          0.5,           0.,           0.
     19,           0.,           1.,           1.
     20,           0.,          0.5,           1.
** ... 7 like lines cut
*Element, type=C3D8
1, 10, 11, 14, 13,  1,  2,  5,  4
2, 11, 12, 15, 14,  2,  3,  6,  5
3, 13, 14, 17, 16,  4,  5,  8,  7
4, 14, 15, 18, 17,  5,  6,  9,  8
5, 19, 20, 23, 22, 10, 11, 14, 13
6, 20, 21, 24, 23, 11, 12, 15, 14
7, 22, 23, 26, 25, 13, 14, 17, 16
8, 23, 24, 27, 26, 14, 15, 18, 17
*Nset, nset=Set-1, generate
  1,  27,   1
*Elset, elset=Set-1, generate
 1,  8,  1
** Section: Cube
*Solid Section, elset=Set-1, material=NeoHooke
,
*End Part
**
*Part, name=Fibers0
*Node
      1,      0.012821,      0.000000,      0.042500
      2,      0.012821,      0.097436,      0.042500
      3,      0.012821,      0.194872,      0.042500
      4,      0.012821,      0.292308,      0.042500
      5,      0.012821,      0.389744,      0.042500
      6,      0.012821,      0.487179,      0.042500
      7,      0.012821,      0.584615,      0.042500
      8,      0.012821,      0.682051,      0.042500
      9,      0.012821,      0.779487,      0.042500
      10,      0.012821,      0.876923,      0.042500
      11,      0.012821,      0.974359,      0.042500
      12,      0.182821,      0.000000,      0.042500
      13,      0.182821,      0.097436,      0.042500
      14,      0.182821,      0.194872,      0.042500
      15,      0.182821,      0.292308,      0.042500
      16,      0.182821,      0.389744,      0.042500
      17,      0.182821,      0.487179,      0.042500
      18,      0.182821,      0.584615,      0.042500
      19,      0.182821,      0.682051,      0.042500
      20,      0.182821,      0.779487,      0.042500
** ... 244 like lines cut
*Element, type=T3D2
1, 1, 2
2, 2, 3
3, 3, 4
4, 4, 5
5, 5, 6
6, 6, 7
7, 7, 8
8, 8, 9
9, 9, 10
10, 10, 11
11, 12, 13
12, 13, 14
13, 14, 15
14, 15, 16
15, 16, 17
16, 17, 18
17, 18, 19
18, 19, 20
19, 20, 21
20, 21, 22
** ... 220 like lines cut
*Nset, nset=Fib0, internal, generate
1, 264, 1
*Elset, elset=Fib0, internal, generate
1, 241, 1
**Section: TrussSection
*Solid Section, elset=Fib0, material=Fibers
2.269801E-02,
*End Part
**
*Part, name=Fibers90
*Node
      1,      0.000000,      0.012821,      0.359724
      2,      0.097436,      0.012821,      0.359724
      3,      0.194872,      0.012821,      0.359724
      4,      0.292308,      0.012821,      0.359724
      5,      0.389744,      0.012821,      0.359724
      6,      0.487179,      0.012821,      0.359724
      7,      0.584615,      0.012821,      0.359724
      8,      0.682051,      0.012821,      0.359724
      9,      0.779487,      0.012821,      0.359724
      10,      0.876923,      0.012821,      0.359724
      11,      0.974359,      0.012821,      0.359724
      12,      0.000000,      0.182821,      0.359724
      13,      0.097436,      0.182821,      0.359724
      14,      0.194872,      0.182821,      0.359724
      15,      0.292308,      0.182821,      0.359724
      16,      0.389744,      0.182821,      0.359724
      17,      0.487179,      0.182821,      0.359724
      18,      0.584615,      0.182821,      0.359724
      19,      0.682051,      0.182821,      0.359724
      20,      0.779487,      0.182821,      0.359724
** ... 178 like lines cut
*Element, type=T3D2
1, 1, 2
2, 2, 3
3, 3, 4
4, 4, 5
5, 5, 6
6, 6, 7
7, 7, 8
8, 8, 9
9, 9, 10
10, 10, 11
11, 12, 13
12, 13, 14
13, 14, 15
14, 15, 16
15, 16, 17
16, 17, 18
17, 18, 19
18, 19, 20
19, 20, 21
20, 21, 22
** ... 160 like lines cut
*Nset, nset=Fib90, internal, generate
1, 198, 1
*Elset, elset=Fib90, internal, generate
1, 181, 1
**Section: TrussSection
*Solid Section, elset=Fib90, material=Fibers
2.269801E-02,
*End Part
**  
**
** ASSEMBLY
**
*Assembly, name=Assembly
**  
*Instance, name=Cube-1, part=Cube
*End Instance
**
*Instance, name=Fibers0, part=Fibers0
0.000000E+00, 0.000000E+00, 0.000000E+00
*End Instance
**
*Instance, name=Fibers90, part=Fibers90
0.000000E+00, 0.000000E+00, 0.000000E+00
*End Instance
*Nset, nset=ALLFIBERS, instance=FIBERS0, generate
1, 264, 1
*Nset, nset=ALLFIBERS, instance=FIBERS90, generate
1, 198, 1
*Elset, elset=ALLFIBERS, instance=FIBERS0, generate
1, 241, 1
*Elset, elset=ALLFIBERS, instance=FIBERS90, generate
1, 181, 1
**  
*Nset, nset=Bottom, instance=Cube-1, generate
  3,  27,   3
*Elset, elset=Bottom, instance=Cube-1, generate
 2,  8,  2
*Nset, nset=CubeOut, instance=Cube-1, generate
  1,  27,   1
*Elset, elset=CubeOut, instance=Cube-1, generate
 1,  8,  1
*Nset, nset=Disp, instance=Cube-1, generate
  1,  25,   3
*Elset, elset=Disp, instance=Cube-1, generate
 1,  7,  2
*Nset, nset=Disp2, instance=Cube-1, generate
  2,  26,   3
*Nset, nset=Host, instance=Cube-1, generate
  1,  27,   1
*Elset, elset=Host, instance=Cube-1, generate
 1,  8,  1
*Nset, nset=Load, instance=Cube-1, generate
  1,  25,   3
*Elset, elset=Load, instance=Cube-1, generate
 1,  7,  2
*Nset, nset=MidY, instance=Cube-1, generate
  2,  26,   3
*Nset, nset=X, instance=Cube-1, generate
  3,  27,   3
*Elset, elset=X, instance=Cube-1, generate
 2,  8,  2
*Nset, nset=Y, instance=Cube-1
  1,  3,  4,  6,  7,  9, 10, 12, 13, 15, 16, 18, 19, 21, 22, 24
 25, 27
*Elset, elset=Y, instance=Cube-1, generate
 1,  8,  1
*Nset, nset=Z, instance=Cube-1, generate
  1,  27,   1
*Elset, elset=Z, instance=Cube-1, generate
 1,  8,  1
** Constraint: Embed-1
*Embedded Element, host elset=HOST
ALLFIBERS
*End Assembly
*Amplitude, name=Ramp
             0.,              0.,             0.1,              1.
** 
** MATERIALS
** 
*Material, name=NeoHooke
*Density
7800.,
*Hyperelastic, neo hooke
 3.846e+10, 1.1999e-11
** 
** BOUNDARY CONDITIONS
** 
** Name: MidY Type: Displacement/Rotation
*Boundary
MidY, 2, 2
** Name: X Type: Displacement/Rotation
*Boundary
X, 1, 1
** Name: Y Type: Displacement/Rotation
*Boundary
Y, 2, 2
** ----------------------------------------------------------------
** 
** STEP: Step-1
** 
*Step, name=Step-1, nlgeom=YES
*Dynamic, Explicit, scale factor=0.5
, 0.1
*Bulk Viscosity
0.06, 1.2
** 
** BOUNDARY CONDITIONS
** 
** Name: ShearDisp Type: Displacement/Rotation
*Boundary, amplitude=Ramp
Disp, 1, 1, 0.02
** Name: ShearDisp2 Type: Displacement/Rotation
*Boundary, amplitude=Ramp
Disp2, 1, 1, 0.01
** 
** OUTPUT REQUESTS
** 
*Restart, write, number interval=1, time marks=NO
** 
** FIELD OUTPUT: F-Output-1
** 
*Output, field, variable=PRESELECT, number interval=200
** 
** HISTORY OUTPUT: H-Output-1
** 
*Output, history, variable=PRESELECT
*End Step
