*Heading
** Job name: AttwoodCompression Model name: AttwoodCompression
** Generated by: Abaqus/CAE 2021
*Preprint, echo=NO, model=NO, history=NO, contact=NO
**
** PARTS
**
*Part, name=L7
*Node
      1, -0.00350000011, -0.00350000011, 0.00100000005
      2, -0.00350000011, -0.00249999994, 0.00100000005
      3, -0.00350000011, -0.00150000001, 0.00100000005
      4, -0.00350000011, -0.000500000024, 0.00100000005
      5, -0.00350000011, 0.000500000024, 0.00100000005
      6, -0.00350000011, 0.00150000001, 0.00100000005
      7, -0.00350000011, 0.00249999994, 0.00100000005
      8, -0.00350000011, 0.00350000011, 0.00100000005
      9, -0.00350000011, -0.00350000011, 0.000500000024
     10, -0.00350000011, -0.00249999994, 0.000500000024
     11, -0.00350000011, -0.00150000001, 0.000500000024
     12, -0.00350000011, -0.000500000024, 0.000500000024
     13, -0.00350000011, 0.000500000024, 0.000500000024
     14, -0.00350000011, 0.00150000001, 0.000500000024
     15, -0.00350000011, 0.00249999994, 0.000500000024
     16, -0.00350000011, 0.00350000011, 0.000500000024
     17, -0.00350000011, -0.00350000011,           0.
     18, -0.00350000011, -0.00249999994,           0.
     19, -0.00350000011, -0.00150000001,           0.
     20, -0.00350000011, -0.000500000024,           0.
** ... 172 like lines cut
*Element, type=C3D8R
 1,  25,  26,  34,  33,   1,   2,  10,   9
 2,  26,  27,  35,  34,   2,   3,  11,  10
 3,  27,  28,  36,  35,   3,   4,  12,  11
 4,  28,  29,  37,  36,   4,   5,  13,  12
 5,  29,  30,  38,  37,   5,   6,  14,  13
 6,  30,  31,  39,  38,   6,   7,  15,  14
 7,  31,  32,  40,  39,   7,   8,  16,  15
 8,  33,  34,  42,  41,   9,  10,  18,  17
 9,  34,  35,  43,  42,  10,  11,  19,  18
10,  35,  36,  44,  43,  11,  12,  20,  19
11,  36,  37,  45,  44,  12,  13,  21,  20
12,  37,  38,  46,  45,  13,  14,  22,  21
13,  38,  39,  47,  46,  14,  15,  23,  22
14,  39,  40,  48,  47,  15,  16,  24,  23
15,  49,  50,  58,  57,  25,  26,  34,  33
16,  50,  51,  59,  58,  26,  27,  35,  34
17,  51,  52,  60,  59,  27,  28,  36,  35
18,  52,  53,  61,  60,  28,  29,  37,  36
19,  53,  54,  62,  61,  29,  30,  38,  37
20,  54,  55,  63,  62,  30,  31,  39,  38
** ... 78 like lines cut
*Nset, nset=Set-1, generate
   1,  192,    1
*Elset, elset=Set-1, generate
  1,  98,   1
** Section: L7
*Solid Section, elset=Set-1, material=NeoHooke
,
*End Part
**  
**
** ASSEMBLY
**
*Assembly, name=Assembly
**  
*Instance, name=L7-1, part=L7
*End Instance
**  
*Nset, nset=Compress, instance=L7-1
   1,   2,   3,   4,   5,   6,   7,   8,  25,  26,  27,  28,  29,  30,  31,  32
  49,  50,  51,  52,  53,  54,  55,  56,  73,  74,  75,  76,  77,  78,  79,  80
  97,  98,  99, 100, 101, 102, 103, 104, 121, 122, 123, 124, 125, 126, 127, 128
 145, 146, 147, 148, 149, 150, 151, 152, 169, 170, 171, 172, 173, 174, 175, 176
*Elset, elset=Compress, instance=L7-1
  1,  2,  3,  4,  5,  6,  7, 15, 16, 17, 18, 19, 20, 21, 29, 30
 31, 32, 33, 34, 35, 43, 44, 45, 46, 47, 48, 49, 57, 58, 59, 60
 61, 62, 63, 71, 72, 73, 74, 75, 76, 77, 85, 86, 87, 88, 89, 90
 91,
*Nset, nset=Fixed, instance=L7-1
  17,  18,  19,  20,  21,  22,  23,  24,  41,  42,  43,  44,  45,  46,  47,  48
  65,  66,  67,  68,  69,  70,  71,  72,  89,  90,  91,  92,  93,  94,  95,  96
 113, 114, 115, 116, 117, 118, 119, 120, 137, 138, 139, 140, 141, 142, 143, 144
 161, 162, 163, 164, 165, 166, 167, 168, 185, 186, 187, 188, 189, 190, 191, 192
*Elset, elset=Fixed, instance=L7-1
  8,  9, 10, 11, 12, 13, 14, 22, 23, 24, 25, 26, 27, 28, 36, 37
 38, 39, 40, 41, 42, 50, 51, 52, 53, 54, 55, 56, 64, 65, 66, 67
 68, 69, 70, 78, 79, 80, 81, 82, 83, 84, 92, 93, 94, 95, 96, 97
 98,
*End Assembly
*Amplitude, name=Ramp
             0.,              0.,             0.1,              1.
** 
** MATERIALS
** 
*Material, name=Fibers
*Density
981.,
*Elastic
 2e+11, 0.3
*Material, name=NeoHooke
*Density
7800.,
*Hyperelastic, neo hooke
 3.846e+10, 1.1999e-11
** 
** BOUNDARY CONDITIONS
** 
** Name: Fixed Type: Displacement/Rotation
*Boundary
Fixed, 3, 3
** ----------------------------------------------------------------
** 
** STEP: Step-1
** 
*Step, name=Step-1, nlgeom=YES
*Dynamic, Explicit
, 0.1
*Bulk Viscosity
0.06, 1.2
** 
** BOUNDARY CONDITIONS
** 
** Name: Disp Type: Displacement/Rotation
*Boundary, amplitude=Ramp
Compress, 3, 3, -0.0003
** 
** OUTPUT REQUESTS
** 
*Restart, write, number interval=1, time marks=NO
** 
** FIELD OUTPUT: F-Output-1
** 
*Output, field, variable=PRESELECT
** 
** HISTORY OUTPUT: H-Output-1
** 
*Output, history, variable=PRESELECT
*End Step
