*Heading
** Job name: AttwoodCompression-2 Model name: AttwoodCompression-2
** Generated by: Abaqus/CAE 2021
*Preprint, echo=NO, model=NO, history=NO, contact=NO
**
** PARTS
**
*Part, name=L7
*Node
      1, -0.00350000011, -0.00350000011, 0.00100000005
      2, -0.00350000011, -0.00308823539, 0.00100000005
      3, -0.00350000011, -0.00267647067, 0.00100000005
      4, -0.00350000011, -0.00226470595, 0.00100000005
      5, -0.00350000011, -0.00185294123, 0.00100000005
      6, -0.00350000011, -0.00144117652, 0.00100000005
      7, -0.00350000011, -0.0010294118, 0.00100000005
      8, -0.00350000011, -0.000617647078, 0.00100000005
      9, -0.00350000011, -0.000205882359, 0.00100000005
     10, -0.00350000011, 0.000205882359, 0.00100000005
     11, -0.00350000011, 0.000617647078, 0.00100000005
     12, -0.00350000011, 0.0010294118, 0.00100000005
     13, -0.00350000011, 0.00144117652, 0.00100000005
     14, -0.00350000011, 0.00185294123, 0.00100000005
     15, -0.00350000011, 0.00226470595, 0.00100000005
     16, -0.00350000011, 0.00267647067, 0.00100000005
     17, -0.00350000011, 0.00308823539, 0.00100000005
     18, -0.00350000011, 0.00350000011, 0.00100000005
     19, -0.00350000011, -0.00350000011, 0.000833333354
     20, -0.00350000011, -0.00308823539, 0.000833333354
** ... 2374 like lines cut
*Element, type=C3D8R
   1,  127,  128,  146,  145,    1,    2,   20,   19
   2,  128,  129,  147,  146,    2,    3,   21,   20
   3,  129,  130,  148,  147,    3,    4,   22,   21
   4,  130,  131,  149,  148,    4,    5,   23,   22
   5,  131,  132,  150,  149,    5,    6,   24,   23
   6,  132,  133,  151,  150,    6,    7,   25,   24
   7,  133,  134,  152,  151,    7,    8,   26,   25
   8,  134,  135,  153,  152,    8,    9,   27,   26
   9,  135,  136,  154,  153,    9,   10,   28,   27
  10,  136,  137,  155,  154,   10,   11,   29,   28
  11,  137,  138,  156,  155,   11,   12,   30,   29
  12,  138,  139,  157,  156,   12,   13,   31,   30
  13,  139,  140,  158,  157,   13,   14,   32,   31
  14,  140,  141,  159,  158,   14,   15,   33,   32
  15,  141,  142,  160,  159,   15,   16,   34,   33
  16,  142,  143,  161,  160,   16,   17,   35,   34
  17,  143,  144,  162,  161,   17,   18,   36,   35
  18,  145,  146,  164,  163,   19,   20,   38,   37
  19,  146,  147,  165,  164,   20,   21,   39,   38
  20,  147,  148,  166,  165,   21,   22,   40,   39
** ... 1816 like lines cut
*Nset, nset=Set-1, generate
    1,  2394,     1
*Elset, elset=Set-1, generate
    1,  1836,     1
** Section: L7
*Solid Section, elset=Set-1, material=NeoHooke
,
*End Part
**  
**
** ASSEMBLY
**
*Assembly, name=Assembly
**  
*Instance, name=L7-1, part=L7
*End Instance
**  
*Nset, nset=Compress, instance=L7-1
    1,    2,    3,    4,    5,    6,    7,    8,    9,   10,   11,   12,   13,   14,   15,   16
   17,   18,  127,  128,  129,  130,  131,  132,  133,  134,  135,  136,  137,  138,  139,  140
  141,  142,  143,  144,  253,  254,  255,  256,  257,  258,  259,  260,  261,  262,  263,  264
  265,  266,  267,  268,  269,  270,  379,  380,  381,  382,  383,  384,  385,  386,  387,  388
  389,  390,  391,  392,  393,  394,  395,  396,  505,  506,  507,  508,  509,  510,  511,  512
  513,  514,  515,  516,  517,  518,  519,  520,  521,  522,  631,  632,  633,  634,  635,  636
  637,  638,  639,  640,  641,  642,  643,  644,  645,  646,  647,  648,  757,  758,  759,  760
  761,  762,  763,  764,  765,  766,  767,  768,  769,  770,  771,  772,  773,  774,  883,  884
  885,  886,  887,  888,  889,  890,  891,  892,  893,  894,  895,  896,  897,  898,  899,  900
 1009, 1010, 1011, 1012, 1013, 1014, 1015, 1016, 1017, 1018, 1019, 1020, 1021, 1022, 1023, 1024
 1025, 1026, 1135, 1136, 1137, 1138, 1139, 1140, 1141, 1142, 1143, 1144, 1145, 1146, 1147, 1148
 1149, 1150, 1151, 1152, 1261, 1262, 1263, 1264, 1265, 1266, 1267, 1268, 1269, 1270, 1271, 1272
 1273, 1274, 1275, 1276, 1277, 1278, 1387, 1388, 1389, 1390, 1391, 1392, 1393, 1394, 1395, 1396
 1397, 1398, 1399, 1400, 1401, 1402, 1403, 1404, 1513, 1514, 1515, 1516, 1517, 1518, 1519, 1520
 1521, 1522, 1523, 1524, 1525, 1526, 1527, 1528, 1529, 1530, 1639, 1640, 1641, 1642, 1643, 1644
 1645, 1646, 1647, 1648, 1649, 1650, 1651, 1652, 1653, 1654, 1655, 1656, 1765, 1766, 1767, 1768
 1769, 1770, 1771, 1772, 1773, 1774, 1775, 1776, 1777, 1778, 1779, 1780, 1781, 1782, 1891, 1892
 1893, 1894, 1895, 1896, 1897, 1898, 1899, 1900, 1901, 1902, 1903, 1904, 1905, 1906, 1907, 1908
 2017, 2018, 2019, 2020, 2021, 2022, 2023, 2024, 2025, 2026, 2027, 2028, 2029, 2030, 2031, 2032
 2033, 2034, 2143, 2144, 2145, 2146, 2147, 2148, 2149, 2150, 2151, 2152, 2153, 2154, 2155, 2156
 2157, 2158, 2159, 2160, 2269, 2270, 2271, 2272, 2273, 2274, 2275, 2276, 2277, 2278, 2279, 2280
 2281, 2282, 2283, 2284, 2285, 2286
*Elset, elset=Compress, instance=L7-1
    1,    2,    3,    4,    5,    6,    7,    8,    9,   10,   11,   12,   13,   14,   15,   16
   17,  103,  104,  105,  106,  107,  108,  109,  110,  111,  112,  113,  114,  115,  116,  117
  118,  119,  205,  206,  207,  208,  209,  210,  211,  212,  213,  214,  215,  216,  217,  218
  219,  220,  221,  307,  308,  309,  310,  311,  312,  313,  314,  315,  316,  317,  318,  319
  320,  321,  322,  323,  409,  410,  411,  412,  413,  414,  415,  416,  417,  418,  419,  420
  421,  422,  423,  424,  425,  511,  512,  513,  514,  515,  516,  517,  518,  519,  520,  521
  522,  523,  524,  525,  526,  527,  613,  614,  615,  616,  617,  618,  619,  620,  621,  622
  623,  624,  625,  626,  627,  628,  629,  715,  716,  717,  718,  719,  720,  721,  722,  723
  724,  725,  726,  727,  728,  729,  730,  731,  817,  818,  819,  820,  821,  822,  823,  824
  825,  826,  827,  828,  829,  830,  831,  832,  833,  919,  920,  921,  922,  923,  924,  925
  926,  927,  928,  929,  930,  931,  932,  933,  934,  935, 1021, 1022, 1023, 1024, 1025, 1026
 1027, 1028, 1029, 1030, 1031, 1032, 1033, 1034, 1035, 1036, 1037, 1123, 1124, 1125, 1126, 1127
 1128, 1129, 1130, 1131, 1132, 1133, 1134, 1135, 1136, 1137, 1138, 1139, 1225, 1226, 1227, 1228
 1229, 1230, 1231, 1232, 1233, 1234, 1235, 1236, 1237, 1238, 1239, 1240, 1241, 1327, 1328, 1329
 1330, 1331, 1332, 1333, 1334, 1335, 1336, 1337, 1338, 1339, 1340, 1341, 1342, 1343, 1429, 1430
 1431, 1432, 1433, 1434, 1435, 1436, 1437, 1438, 1439, 1440, 1441, 1442, 1443, 1444, 1445, 1531
 1532, 1533, 1534, 1535, 1536, 1537, 1538, 1539, 1540, 1541, 1542, 1543, 1544, 1545, 1546, 1547
 1633, 1634, 1635, 1636, 1637, 1638, 1639, 1640, 1641, 1642, 1643, 1644, 1645, 1646, 1647, 1648
 1649, 1735, 1736, 1737, 1738, 1739, 1740, 1741, 1742, 1743, 1744, 1745, 1746, 1747, 1748, 1749
 1750, 1751
*Nset, nset=Fixed, instance=L7-1
  109,  110,  111,  112,  113,  114,  115,  116,  117,  118,  119,  120,  121,  122,  123,  124
  125,  126,  235,  236,  237,  238,  239,  240,  241,  242,  243,  244,  245,  246,  247,  248
  249,  250,  251,  252,  361,  362,  363,  364,  365,  366,  367,  368,  369,  370,  371,  372
  373,  374,  375,  376,  377,  378,  487,  488,  489,  490,  491,  492,  493,  494,  495,  496
  497,  498,  499,  500,  501,  502,  503,  504,  613,  614,  615,  616,  617,  618,  619,  620
  621,  622,  623,  624,  625,  626,  627,  628,  629,  630,  739,  740,  741,  742,  743,  744
  745,  746,  747,  748,  749,  750,  751,  752,  753,  754,  755,  756,  865,  866,  867,  868
  869,  870,  871,  872,  873,  874,  875,  876,  877,  878,  879,  880,  881,  882,  991,  992
  993,  994,  995,  996,  997,  998,  999, 1000, 1001, 1002, 1003, 1004, 1005, 1006, 1007, 1008
 1117, 1118, 1119, 1120, 1121, 1122, 1123, 1124, 1125, 1126, 1127, 1128, 1129, 1130, 1131, 1132
 1133, 1134, 1243, 1244, 1245, 1246, 1247, 1248, 1249, 1250, 1251, 1252, 1253, 1254, 1255, 1256
 1257, 1258, 1259, 1260, 1369, 1370, 1371, 1372, 1373, 1374, 1375, 1376, 1377, 1378, 1379, 1380
 1381, 1382, 1383, 1384, 1385, 1386, 1495, 1496, 1497, 1498, 1499, 1500, 1501, 1502, 1503, 1504
 1505, 1506, 1507, 1508, 1509, 1510, 1511, 1512, 1621, 1622, 1623, 1624, 1625, 1626, 1627, 1628
 1629, 1630, 1631, 1632, 1633, 1634, 1635, 1636, 1637, 1638, 1747, 1748, 1749, 1750, 1751, 1752
 1753, 1754, 1755, 1756, 1757, 1758, 1759, 1760, 1761, 1762, 1763, 1764, 1873, 1874, 1875, 1876
 1877, 1878, 1879, 1880, 1881, 1882, 1883, 1884, 1885, 1886, 1887, 1888, 1889, 1890, 1999, 2000
 2001, 2002, 2003, 2004, 2005, 2006, 2007, 2008, 2009, 2010, 2011, 2012, 2013, 2014, 2015, 2016
 2125, 2126, 2127, 2128, 2129, 2130, 2131, 2132, 2133, 2134, 2135, 2136, 2137, 2138, 2139, 2140
 2141, 2142, 2251, 2252, 2253, 2254, 2255, 2256, 2257, 2258, 2259, 2260, 2261, 2262, 2263, 2264
 2265, 2266, 2267, 2268, 2377, 2378, 2379, 2380, 2381, 2382, 2383, 2384, 2385, 2386, 2387, 2388
 2389, 2390, 2391, 2392, 2393, 2394
*Elset, elset=Fixed, instance=L7-1
   86,   87,   88,   89,   90,   91,   92,   93,   94,   95,   96,   97,   98,   99,  100,  101
  102,  188,  189,  190,  191,  192,  193,  194,  195,  196,  197,  198,  199,  200,  201,  202
  203,  204,  290,  291,  292,  293,  294,  295,  296,  297,  298,  299,  300,  301,  302,  303
  304,  305,  306,  392,  393,  394,  395,  396,  397,  398,  399,  400,  401,  402,  403,  404
  405,  406,  407,  408,  494,  495,  496,  497,  498,  499,  500,  501,  502,  503,  504,  505
  506,  507,  508,  509,  510,  596,  597,  598,  599,  600,  601,  602,  603,  604,  605,  606
  607,  608,  609,  610,  611,  612,  698,  699,  700,  701,  702,  703,  704,  705,  706,  707
  708,  709,  710,  711,  712,  713,  714,  800,  801,  802,  803,  804,  805,  806,  807,  808
  809,  810,  811,  812,  813,  814,  815,  816,  902,  903,  904,  905,  906,  907,  908,  909
  910,  911,  912,  913,  914,  915,  916,  917,  918, 1004, 1005, 1006, 1007, 1008, 1009, 1010
 1011, 1012, 1013, 1014, 1015, 1016, 1017, 1018, 1019, 1020, 1106, 1107, 1108, 1109, 1110, 1111
 1112, 1113, 1114, 1115, 1116, 1117, 1118, 1119, 1120, 1121, 1122, 1208, 1209, 1210, 1211, 1212
 1213, 1214, 1215, 1216, 1217, 1218, 1219, 1220, 1221, 1222, 1223, 1224, 1310, 1311, 1312, 1313
 1314, 1315, 1316, 1317, 1318, 1319, 1320, 1321, 1322, 1323, 1324, 1325, 1326, 1412, 1413, 1414
 1415, 1416, 1417, 1418, 1419, 1420, 1421, 1422, 1423, 1424, 1425, 1426, 1427, 1428, 1514, 1515
 1516, 1517, 1518, 1519, 1520, 1521, 1522, 1523, 1524, 1525, 1526, 1527, 1528, 1529, 1530, 1616
 1617, 1618, 1619, 1620, 1621, 1622, 1623, 1624, 1625, 1626, 1627, 1628, 1629, 1630, 1631, 1632
 1718, 1719, 1720, 1721, 1722, 1723, 1724, 1725, 1726, 1727, 1728, 1729, 1730, 1731, 1732, 1733
 1734, 1820, 1821, 1822, 1823, 1824, 1825, 1826, 1827, 1828, 1829, 1830, 1831, 1832, 1833, 1834
 1835, 1836
*End Assembly
*Amplitude, name=Ramp
             0.,              0.,             0.1,              1.
** 
** MATERIALS
** 
*Material, name=Fibers
*Density
981.,
*Elastic
 2e+11, 0.3
*Material, name=NeoHooke
*Density
 7.8e+09,
*Hyperelastic, neo hooke
 3.846e+10, 1.1999e-11
** 
** BOUNDARY CONDITIONS
** 
** Name: Fixed Type: Displacement/Rotation
*Boundary
Fixed, 3, 3
** ----------------------------------------------------------------
** 
** STEP: Step-1
** 
*Step, name=Step-1, nlgeom=YES
*Dynamic, Explicit
, 0.1
*Bulk Viscosity
0.06, 1.2
** 
** BOUNDARY CONDITIONS
** 
** Name: Disp Type: Displacement/Rotation
*Boundary, amplitude=Ramp
Compress, 3, 3, -0.0003
** 
** OUTPUT REQUESTS
** 
*Restart, write, number interval=1, time marks=NO
** 
** FIELD OUTPUT: F-Output-1
** 
*Output, field, variable=PRESELECT, number interval=100
** 
** HISTORY OUTPUT: H-Output-1
** 
*Output, history, variable=PRESELECT
*End Step
