*Heading
** Job name: CurvedTest2 Model name: CurvedTest2
** Generated by: Abaqus/CAE 2021
*Preprint, echo=NO, model=NO, history=NO, contact=NO
**
** PARTS
**
*Part, name=CurvedTest
*Node
      1, -0.349999994,           0.,          0.5
      2, -0.349999994,           0.,  0.428571433
      3, -0.349999994,           0.,  0.357142866
      4, -0.349999994,           0.,  0.285714298
      5, -0.349999994,           0.,  0.214285716
      6, -0.349999994,           0.,  0.142857149
      7, -0.349999994,           0., 0.0714285746
      8, -0.349999994,           0.,           0.
      9, -0.345690906,  0.054752063,          0.5
     10, -0.345690906,  0.054752063,  0.428571433
     11, -0.345690906,  0.054752063,  0.357142866
     12, -0.345690906,  0.054752063,  0.285714298
     13, -0.345690906,  0.054752063,  0.214285716
     14, -0.345690906,  0.054752063,  0.142857149
     15, -0.345690906,  0.054752063, 0.0714285746
     16, -0.345690906,  0.054752063,           0.
     17, -0.332869768,  0.108155951,          0.5
     18, -0.332869768,  0.108155951,  0.428571433
     19, -0.332869768,  0.108155951,  0.357142866
     20, -0.332869768,  0.108155951,  0.285714298
** ... 652 like lines cut
*Element, type=C3D8R
  1, 169, 170, 178, 177,   1,   2,  10,   9
  2, 170, 171, 179, 178,   2,   3,  11,  10
  3, 171, 172, 180, 179,   3,   4,  12,  11
  4, 172, 173, 181, 180,   4,   5,  13,  12
  5, 173, 174, 182, 181,   5,   6,  14,  13
  6, 174, 175, 183, 182,   6,   7,  15,  14
  7, 175, 176, 184, 183,   7,   8,  16,  15
  8, 177, 178, 186, 185,   9,  10,  18,  17
  9, 178, 179, 187, 186,  10,  11,  19,  18
 10, 179, 180, 188, 187,  11,  12,  20,  19
 11, 180, 181, 189, 188,  12,  13,  21,  20
 12, 181, 182, 190, 189,  13,  14,  22,  21
 13, 182, 183, 191, 190,  14,  15,  23,  22
 14, 183, 184, 192, 191,  15,  16,  24,  23
 15, 185, 186, 194, 193,  17,  18,  26,  25
 16, 186, 187, 195, 194,  18,  19,  27,  26
 17, 187, 188, 196, 195,  19,  20,  28,  27
 18, 188, 189, 197, 196,  20,  21,  29,  28
 19, 189, 190, 198, 197,  21,  22,  30,  29
 20, 190, 191, 199, 198,  22,  23,  31,  30
** ... 400 like lines cut
*Nset, nset=Set-1, generate
   1,  672,    1
*Elset, elset=Set-1, generate
   1,  420,    1
** Section: Matrix
*Solid Section, elset=Set-1, material=Matrix-NeoHooke
,
*End Part
**  
**
** ASSEMBLY
**
*Assembly, name=Assembly
**  
*Instance, name=CurvedTest-1, part=CurvedTest
          0.,           0.,           0.
          0.,           0.,           0.,           1.,           0.,           0.,          90.
*End Instance
**  
*Nset, nset=HOST, instance=CurvedTest-1, generate
   1,  672,    1
*Elset, elset=HOST, instance=CurvedTest-1, generate
   1,  420,    1
*Nset, nset=Outside, instance=CurvedTest-1
   1,   2,   3,   4,   5,   6,   7,   8,   9,  10,  11,  12,  13,  14,  15,  16
  17,  18,  19,  20,  21,  22,  23,  24,  25,  26,  27,  28,  29,  30,  31,  32
  33,  34,  35,  36,  37,  38,  39,  40,  41,  42,  43,  44,  45,  46,  47,  48
  49,  50,  51,  52,  53,  54,  55,  56,  57,  58,  59,  60,  61,  62,  63,  64
  65,  66,  67,  68,  69,  70,  71,  72,  73,  74,  75,  76,  77,  78,  79,  80
  81,  82,  83,  84,  85,  86,  87,  88,  89,  90,  91,  92,  93,  94,  95,  96
  97,  98,  99, 100, 101, 102, 103, 104, 105, 106, 107, 108, 109, 110, 111, 112
 113, 114, 115, 116, 117, 118, 119, 120, 121, 122, 123, 124, 125, 126, 127, 128
 129, 130, 131, 132, 133, 134, 135, 136, 137, 138, 139, 140, 141, 142, 143, 144
 145, 146, 147, 148, 149, 150, 151, 152, 153, 154, 155, 156, 157, 158, 159, 160
 161, 162, 163, 164, 165, 166, 167, 168, 169, 170, 171, 172, 173, 174, 175, 176
 177, 184, 185, 192, 193, 200, 201, 208, 209, 216, 217, 224, 225, 232, 233, 240
 241, 248, 249, 256, 257, 264, 265, 272, 273, 280, 281, 288, 289, 296, 297, 304
 305, 312, 313, 320, 321, 328, 329, 330, 331, 332, 333, 334, 335, 336, 337, 338
 339, 340, 341, 342, 343, 344, 345, 352, 353, 360, 361, 368, 369, 376, 377, 384
 385, 392, 393, 400, 401, 408, 409, 416, 417, 424, 425, 432, 433, 440, 441, 448
 449, 456, 457, 464, 465, 472, 473, 480, 481, 488, 489, 496, 497, 498, 499, 500
 501, 502, 503, 504, 505, 506, 507, 508, 509, 510, 511, 512, 513, 514, 515, 516
 517, 518, 519, 520, 521, 522, 523, 524, 525, 526, 527, 528, 529, 530, 531, 532
 533, 534, 535, 536, 537, 538, 539, 540, 541, 542, 543, 544, 545, 546, 547, 548
** ... 8 like lines cut
*Elset, elset=Outside, instance=CurvedTest-1
   1,   2,   3,   4,   5,   6,   7,   8,   9,  10,  11,  12,  13,  14,  15,  16
  17,  18,  19,  20,  21,  22,  23,  24,  25,  26,  27,  28,  29,  30,  31,  32
  33,  34,  35,  36,  37,  38,  39,  40,  41,  42,  43,  44,  45,  46,  47,  48
  49,  50,  51,  52,  53,  54,  55,  56,  57,  58,  59,  60,  61,  62,  63,  64
  65,  66,  67,  68,  69,  70,  71,  72,  73,  74,  75,  76,  77,  78,  79,  80
  81,  82,  83,  84,  85,  86,  87,  88,  89,  90,  91,  92,  93,  94,  95,  96
  97,  98,  99, 100, 101, 102, 103, 104, 105, 106, 107, 108, 109, 110, 111, 112
 113, 114, 115, 116, 117, 118, 119, 120, 121, 122, 123, 124, 125, 126, 127, 128
 129, 130, 131, 132, 133, 134, 135, 136, 137, 138, 139, 140, 141, 142, 143, 144
 145, 146, 147, 148, 154, 155, 161, 162, 168, 169, 175, 176, 182, 183, 189, 190
 196, 197, 203, 204, 210, 211, 217, 218, 224, 225, 231, 232, 238, 239, 245, 246
 252, 253, 259, 260, 266, 267, 273, 274, 275, 276, 277, 278, 279, 280, 281, 282
 283, 284, 285, 286, 287, 288, 289, 290, 291, 292, 293, 294, 295, 296, 297, 298
 299, 300, 301, 302, 303, 304, 305, 306, 307, 308, 309, 310, 311, 312, 313, 314
 315, 316, 317, 318, 319, 320, 321, 322, 323, 324, 325, 326, 327, 328, 329, 330
 331, 332, 333, 334, 335, 336, 337, 338, 339, 340, 341, 342, 343, 344, 345, 346
 347, 348, 349, 350, 351, 352, 353, 354, 355, 356, 357, 358, 359, 360, 361, 362
 363, 364, 365, 366, 367, 368, 369, 370, 371, 372, 373, 374, 375, 376, 377, 378
 379, 380, 381, 382, 383, 384, 385, 386, 387, 388, 389, 390, 391, 392, 393, 394
 395, 396, 397, 398, 399, 400, 401, 402, 403, 404, 405, 406, 407, 408, 409, 410
 411, 412, 413, 414, 415, 416, 417, 418, 419, 420
*Nset, nset=SimpleSupport, instance=CurvedTest-1
   1,   2,   3,   4,   5,   6,   7,   8, 161, 162, 163, 164, 165, 166, 167, 168
 169, 170, 171, 172, 173, 174, 175, 176, 329, 330, 331, 332, 333, 334, 335, 336
 337, 338, 339, 340, 341, 342, 343, 344, 497, 498, 499, 500, 501, 502, 503, 504
 505, 506, 507, 508, 509, 510, 511, 512, 665, 666, 667, 668, 669, 670, 671, 672
*Elset, elset=SimpleSupport, instance=CurvedTest-1
   1,   2,   3,   4,   5,   6,   7, 134, 135, 136, 137, 138, 139, 140, 141, 142
 143, 144, 145, 146, 147, 274, 275, 276, 277, 278, 279, 280, 281, 282, 283, 284
 285, 286, 287, 414, 415, 416, 417, 418, 419, 420
*End Assembly
*Amplitude, name=Amp-1
             0.,              0.,           0.001,              1.
** 
** MATERIALS
** 
*Material, name=FIBERS
*Density
981.,
*Elastic
 1.3e+11, 0.49
*Material, name=Matrix-NeoHooke
*Density
1100.,
*Hyperelastic, neo hooke
 2.1154e+08, 2.182e-09
** 
** BOUNDARY CONDITIONS
** 
** Name: SimpleSupport Type: Displacement/Rotation
*Boundary
SimpleSupport, 3, 3
** ----------------------------------------------------------------
** 
** STEP: Step-1
** 
*Step, name=Step-1, nlgeom=YES
*Dynamic, Explicit
, 0.001
*Bulk Viscosity
0.06, 1.2
** 
** OUTPUT REQUESTS
** 
*Restart, write, number interval=1, time marks=NO
** 
** FIELD OUTPUT: F-Output-1
** 
*Output, field, variable=PRESELECT
** 
** HISTORY OUTPUT: H-Output-1
** 
*Output, history, variable=PRESELECT
*End Step
