*Heading
** Job name: CurvedTest3 Model name: CurvedTest3
** Generated by: Abaqus/CAE 2021
*Preprint, echo=NO, model=NO, history=NO, contact=NO
**
** PARTS
**
*Part, name=CurvedTest
*Node
      1, -0.439999998,           0.,          0.5
      2,           0.,  0.200000003,          0.5
      3,           0.,  0.200000003,           0.
      4, -0.439999998,           0.,           0.
      5,           0.,  0.150000006,          0.5
      6,           0.,  0.150000006,           0.
      7, -0.405091435, -0.0357965231,           0.
      8, -0.405091435, -0.0357965231,          0.5
      9,  0.439999998,           0.,          0.5
     10,  0.439999998,           0.,           0.
     11,  0.405091435, -0.0357965231,          0.5
     12,  0.405091435, -0.0357965231,           0.
     13, -0.377984047, 0.0538610369,          0.5
     14, -0.310178578,  0.100222774,          0.5
     15, -0.237485647,  0.138468444,          0.5
     16,  -0.16087234,  0.168089241,          0.5
     17, -0.0813578516,  0.188691124,          0.5
     18,           0.,  0.200000003,  0.428571433
     19,           0.,  0.200000003,  0.357142866
     20,           0.,  0.200000003,  0.285714298
** ... 292 like lines cut
*Element, type=C3D8R
 1,  58, 167, 253, 155,   1,  13,  95,  34
 2, 167, 168, 254, 253,  13,  14,  96,  95
 3, 168, 169, 255, 254,  14,  15,  97,  96
 4, 169, 170, 256, 255,  15,  16,  98,  97
 5, 170, 171, 257, 256,  16,  17,  99,  98
 6, 171,  60, 161, 257,  17,   2,  18,  99
 7, 155, 253, 258, 156,  34,  95, 100,  33
 8, 253, 254, 259, 258,  95,  96, 101, 100
 9, 254, 255, 260, 259,  96,  97, 102, 101
10, 255, 256, 261, 260,  97,  98, 103, 102
11, 256, 257, 262, 261,  98,  99, 104, 103
12, 257, 161, 162, 262,  99,  18,  19, 104
13, 156, 258, 263, 157,  33, 100, 105,  32
14, 258, 259, 264, 263, 100, 101, 106, 105
15, 259, 260, 265, 264, 101, 102, 107, 106
16, 260, 261, 266, 265, 102, 103, 108, 107
17, 261, 262, 267, 266, 103, 104, 109, 108
18, 262, 162, 163, 267, 104,  19,  20, 109
19, 157, 263, 268, 158,  32, 105, 110,  31
20, 263, 264, 269, 268, 105, 106, 111, 110
** ... 148 like lines cut
*Nset, nset=Set-1, generate
   1,  312,    1
*Elset, elset=Set-1, generate
   1,  168,    1
** Section: Matrix
*Solid Section, elset=Set-1, material=Matrix-NeoHooke
,
*End Part
**  
**
** ASSEMBLY
**
*Assembly, name=Assembly
**  
*Instance, name=CurvedTest-1, part=CurvedTest
          0.,           0.,           0.
          0.,           0.,           0.,           1.,           0.,           0.,          90.
*End Instance
**  
*Nset, nset=HOST, instance=CurvedTest-1, generate
   1,  312,    1
*Elset, elset=HOST, instance=CurvedTest-1, generate
   1,  168,    1
*Nset, nset=Outside, instance=CurvedTest-1
   1,   2,   3,   4,   5,   6,   7,   8,   9,  10,  11,  12,  13,  14,  15,  16
  17,  18,  19,  20,  21,  22,  23,  24,  25,  26,  27,  28,  29,  30,  31,  32
  33,  34,  35,  36,  37,  38,  39,  40,  41,  42,  43,  44,  45,  46,  47,  48
  49,  50,  51,  52,  53,  54,  55,  56,  57,  58,  59,  60,  61,  62,  63,  64
  65,  66,  67,  68,  69,  70,  71,  72,  73,  74,  75,  76,  77,  78,  79,  80
  81,  82,  83,  84,  85,  86,  87,  88,  89,  90,  91,  92,  93,  94,  95,  96
  97,  98,  99, 100, 101, 102, 103, 104, 105, 106, 107, 108, 109, 110, 111, 112
 113, 114, 115, 116, 117, 118, 119, 120, 121, 122, 123, 124, 125, 126, 127, 128
 129, 130, 131, 132, 133, 134, 135, 136, 137, 138, 139, 140, 141, 142, 143, 144
 145, 146, 147, 148, 149, 150, 151, 152, 153, 154, 155, 156, 157, 158, 159, 160
 167, 168, 169, 170, 171, 172, 173, 174, 175, 176, 177, 178, 179, 180, 181, 182
 183, 184, 185, 186, 187, 188, 189, 190, 191, 192, 193, 194, 195, 196, 197, 198
 199, 200, 201, 202, 203, 204, 205, 206, 207, 208, 209, 210, 211, 212, 213, 214
 215, 216, 217, 218, 219, 220, 221, 222, 223, 224, 225, 226, 227, 228, 229, 230
 231, 232, 233, 234, 235, 236, 237, 238, 239, 240, 241, 242, 243, 244, 245, 246
 247, 248, 249, 250, 251, 252
*Elset, elset=Outside, instance=CurvedTest-1, generate
   1,  168,    1
*Nset, nset=SimpleSupport, instance=CurvedTest-1
  7,  8, 11, 12, 51, 52, 53, 54, 55, 56, 82, 83, 84, 85, 86, 87
*Elset, elset=SimpleSupport, instance=CurvedTest-1
  43,  49,  55,  61,  67,  73,  79, 132, 138, 144, 150, 156, 162, 168
*End Assembly
*Amplitude, name=Amp-1
             0.,              0.,           0.001,              1.
** 
** MATERIALS
** 
*Material, name=FIBERS
*Density
981.,
*Elastic
 1.3e+11, 0.49
*Material, name=Matrix-NeoHooke
*Density
1100.,
*Hyperelastic, neo hooke
 2.1154e+08, 2.182e-09
** 
** BOUNDARY CONDITIONS
** 
** Name: SimpleSupport Type: Displacement/Rotation
*Boundary
SimpleSupport, 3, 3
** ----------------------------------------------------------------
** 
** STEP: Step-1
** 
*Step, name=Step-1, nlgeom=YES
*Dynamic, Explicit
, 0.001
*Bulk Viscosity
0.06, 1.2
** 
** OUTPUT REQUESTS
** 
*Restart, write, number interval=1, time marks=NO
** 
** FIELD OUTPUT: F-Output-1
** 
*Output, field, variable=PRESELECT
** 
** HISTORY OUTPUT: H-Output-1
** 
*Output, history, variable=PRESELECT
*End Step
