*Heading
** Job name: CurvedTest Model name: Model-1
** Generated by: Abaqus/CAE 2021
*Preprint, echo=NO, model=NO, history=NO, contact=NO
**
** PARTS
**
*Part, name=CurvedTest
*Node
      1, -0.290688843, -0.0186223257,          0.5
      2,  -0.19772993, 0.0191953443,          0.5
      3,  -0.10005755, 0.0422526672,          0.5
      4,           0., 0.0500000007,          0.5
      5,   0.10005755, 0.0422526672,          0.5
      6,   0.19772993, 0.0191953443,          0.5
      7,  0.290688843, -0.0186223257,          0.5
      8, -0.290688843, -0.0186223257,  0.400000006
      9,  -0.19772993, 0.0191953443,  0.400000006
     10,  -0.10005755, 0.0422526672,  0.400000006
     11,           0., 0.0500000007,  0.400000006
     12,   0.10005755, 0.0422526672,  0.400000006
     13,   0.19772993, 0.0191953443,  0.400000006
     14,  0.290688843, -0.0186223257,  0.400000006
     15, -0.290688843, -0.0186223257,  0.300000012
     16,  -0.19772993, 0.0191953443,  0.300000012
     17,  -0.10005755, 0.0422526672,  0.300000012
     18,           0., 0.0500000007,  0.300000012
     19,   0.10005755, 0.0422526672,  0.300000012
     20,   0.19772993, 0.0191953443,  0.300000012
** ... 64 like lines cut
*Element, type=C3D8R
 1, 43, 44, 51, 50,  1,  2,  9,  8
 2, 44, 45, 52, 51,  2,  3, 10,  9
 3, 45, 46, 53, 52,  3,  4, 11, 10
 4, 46, 47, 54, 53,  4,  5, 12, 11
 5, 47, 48, 55, 54,  5,  6, 13, 12
 6, 48, 49, 56, 55,  6,  7, 14, 13
 7, 50, 51, 58, 57,  8,  9, 16, 15
 8, 51, 52, 59, 58,  9, 10, 17, 16
 9, 52, 53, 60, 59, 10, 11, 18, 17
10, 53, 54, 61, 60, 11, 12, 19, 18
11, 54, 55, 62, 61, 12, 13, 20, 19
12, 55, 56, 63, 62, 13, 14, 21, 20
13, 57, 58, 65, 64, 15, 16, 23, 22
14, 58, 59, 66, 65, 16, 17, 24, 23
15, 59, 60, 67, 66, 17, 18, 25, 24
16, 60, 61, 68, 67, 18, 19, 26, 25
17, 61, 62, 69, 68, 19, 20, 27, 26
18, 62, 63, 70, 69, 20, 21, 28, 27
19, 64, 65, 72, 71, 22, 23, 30, 29
20, 65, 66, 73, 72, 23, 24, 31, 30
** ... 10 like lines cut
*Nset, nset=Set-1, generate
  1,  84,   1
*Elset, elset=Set-1, generate
  1,  30,   1
** Section: Matrix
*Solid Section, elset=Set-1, material=Matrix-NeoHooke
,
*End Part
**  
**
** ASSEMBLY
**
*Assembly, name=Assembly
**  
*Instance, name=CurvedTest-1, part=CurvedTest
          0.,           0.,           0.
          0.,           0.,           0.,           1.,           0.,           0.,          90.
*End Instance
**  
*Nset, nset=SimpleSupport, instance=CurvedTest-1
 43, 49, 50, 56, 57, 63, 64, 70, 71, 77, 78, 84
*Elset, elset=SimpleSupport, instance=CurvedTest-1
  1,  6,  7, 12, 13, 18, 19, 24, 25, 30
*End Assembly
*Amplitude, name=Amp-1
             0.,              0.,           0.001,              1.
** 
** MATERIALS
** 
*Material, name=FIBERS
*Density
981.,
*Elastic
 1.3e+11, 0.49
*Material, name=Matrix-NeoHooke
*Density
1100.,
*Hyperelastic, neo hooke
 2.1154e+08, 2.182e-09
** 
** BOUNDARY CONDITIONS
** 
** Name: SimpleSupport Type: Displacement/Rotation
*Boundary
SimpleSupport, 3, 3
** ----------------------------------------------------------------
** 
** STEP: Step-1
** 
*Step, name=Step-1, nlgeom=YES
*Dynamic, Explicit
, 0.001
*Bulk Viscosity
0.06, 1.2
** 
** OUTPUT REQUESTS
** 
*Restart, write, number interval=1, time marks=NO
** 
** FIELD OUTPUT: F-Output-1
** 
*Output, field, variable=PRESELECT
** 
** HISTORY OUTPUT: H-Output-1
** 
*Output, history, variable=PRESELECT
*End Step
