*Heading
** Job name: DyneemaDiskQuarter_thin Model name: DyneemaDiskQuarter_thin
** Generated by: Abaqus/CAE 2021
*Preprint, echo=NO, model=NO, history=NO, contact=NO
**
** PARTS
**
*Part, name=SteelProjectile
*Node
      1, 0.00260637561, -0.00301579502, 0.00260637561
      2,           0., 0.00476250006,           0.
      3,           0., -0.00476250006,           0.
      4,           0., -0.00301579502, 0.00368597172
      5, 0.00368597172, -0.00301579502,           0.
      6,           0., 0.00424308376,           0.
      7,           0., 0.00373797258,           0.
      8,           0., 0.00323740346,           0.
      9,           0., 0.00273847999,           0.
     10,           0., 0.00224014977,           0.
     11,           0., 0.00174203201,           0.
     12,           0., 0.00124399003,           0.
     13,           0., 0.000745975005,           0.
     14,           0., 0.00024796935,           0.
     15,           0., -0.000250032113,           0.
     16,           0., -0.000748031714,           0.
     17,           0., -0.00124602823,           0.
     18,           0., -0.00174401852,           0.
     19,           0., -0.00224199868,           0.
     20,           0., -0.00273996824,           0.
** ... 2405 like lines cut
*Element, type=C3D8R
  1,  139,  121,  122,  140,  894,  876,  877,  895
  2,  121,  139,   48,   49,  876,  894,  447,  448
  3,  123,  141,  140,  122,  878,  896,  895,  877
  4,  220,  181,  142,  173,  975,  936,  897,  928
  5,  146,  126,  127,  147,  901,  881,  882,  902
  6,  192,  187,  181,  221,  947,  942,  936,  976
  7,  172,  145,   43,   44,  927,  900,  442,  443
  8,  144,  143,  124,  125,  899,  898,  879,  880
  9,  171,  188,  179,  148,  926,  943,  934,  903
 10,  171,  148,   41,   42,  926,  903,  440,  441
 11,  170,  150,   39,   40,  925,  905,  438,  439
 12,  128,  149,  147,  127,  883,  904,  902,  882
 13,  189,  202,  203,  182,  944,  957,  958,  937
 14,  168,  189,  182,  153,  923,  944,  937,  908
 15,  130,  152,  151,  129,  885,  907,  906,  884
 16,  167,  185,  184,  156,  922,  940,  939,  911
 17,  167,  156,   34,   35,  922,  911,  433,  434
 18,  177,  191,  211,  195,  932,  946,  966,  950
 19,  185,  205,  207,  184,  940,  960,  962,  939
 20,  135,  160,  159,  134,  890,  915,  914,  889
** ... 1876 like lines cut
*Element, type=C3D6
 949,   23,  258, 1013,    3,   24,  536
 950,   22,  259, 1014,   23,  258, 1013
 951,   21,  260, 1015,   22,  259, 1014
 952,   20,  261, 1016,   21,  260, 1015
 953,   19,  262, 1017,   20,  261, 1016
 954,   18,  263, 1018,   19,  262, 1017
 955,   17,  264, 1019,   18,  263, 1018
 956,   16,  265, 1020,   17,  264, 1019
 957,   15,  266, 1021,   16,  265, 1020
 958,   14,  267, 1022,   15,  266, 1021
 959,   13,  268, 1023,   14,  267, 1022
 960,   12,  269, 1024,   13,  268, 1023
 961,   11,  270, 1025,   12,  269, 1024
 962,   10,  271, 1026,   11,  270, 1025
 963,    9,  272, 1027,   10,  271, 1026
 964,    8,  273, 1028,    9,  272, 1027
 965,    7,  274, 1029,    8,  273, 1028
 966,    6,  275, 1030,    7,  274, 1029
 967,    2,   52,  451,    6,  275, 1030
 968,   23, 1013, 1168,    3,  536,  544
** ... 256 like lines cut
*Nset, nset=All, generate
    1,  2425,     1
*Elset, elset=All, generate
    1,  2172,     1
*Nset, nset=Set-4, generate
    1,  2425,     1
*Elset, elset=Set-4, generate
    1,  2172,     1
** Region: (Projectile:Set-4), (Controls:EC-2)
*Elset, elset=_I1, internal
    1,    2,    3,    4,    5,    6,    7,    8,    9,   10,   11,   12,   13,   14,   15,   16
   17,   18,   19,   20,   21,   22,   23,   24,   25,   26,   27,   28,   29,   30,   31,   32
   33,   34,   35,   36,   37,   38,   39,   40,   41,   42,   43,   44,   45,   46,   47,   48
   49,   50,   51,   52,   53,   54,   55,   56,   57,   58,   59,   60,   61,   62,   63,   64
   65,   66,   67,   68,   69,   70,   71,   72,   73,   74,   75,   76,   77,   78,   79,   80
   81,   82,   83,   84,   85,   86,   87,   88,   89,   90,   91,   92,   93,   94,   95,   96
   97,   98,   99,  100,  101,  102,  103,  104,  105,  106,  107,  108,  109,  110,  111,  112
  113,  114,  115,  116,  117,  118,  119,  120,  121,  122,  123,  124,  125,  126,  127,  128
  129,  130,  131,  132,  133,  134,  135,  136,  137,  138,  139,  140,  141,  142,  143,  144
  145,  146,  147,  148,  149,  150,  151,  152,  153,  154,  155,  156,  157,  158,  159,  160
  161,  162,  163,  164,  165,  166,  167,  168,  169,  170,  171,  172,  173,  174,  175,  176
  177,  178,  179,  180,  181,  182,  183,  184,  185,  186,  187,  188,  189,  190,  191,  192
  193,  194,  195,  196,  197,  198,  199,  200,  201,  202,  203,  204,  205,  206,  207,  208
  209,  210,  211,  212,  213,  214,  215,  216,  217,  218,  219,  220,  221,  222,  223,  224
  225,  226,  227,  228,  229,  230,  231,  232,  233,  234,  235,  236,  237,  238,  239,  240
  241,  242,  243,  244,  245,  246,  247,  248,  249,  250,  251,  252,  253,  254,  255,  256
  257,  258,  259,  260,  261,  262,  263,  264,  265,  266,  267,  268,  269,  270,  271,  272
  273,  274,  275,  276,  277,  278,  279,  280,  281,  282,  283,  284,  285,  286,  287,  288
  289,  290,  291,  292,  293,  294,  295,  296,  297,  298,  299,  300,  301,  302,  303,  304
  305,  306,  307,  308,  309,  310,  311,  312,  313,  314,  315,  316,  317,  318,  319,  320
** ... 99 like lines cut
** Section: Projectile
*Solid Section, elset=_I1, controls=EC-2, material=M50_ToolSteel
,
** Region: (Projectile:Set-4), (Controls:Default)
*Elset, elset=_I2, internal
  949,  950,  951,  952,  953,  954,  955,  956,  957,  958,  959,  960,  961,  962,  963,  964
  965,  966,  967,  968,  969,  970,  971,  972,  973,  974,  975,  976,  977,  978,  979,  980
  981,  982,  983,  984,  985,  986,  987,  988,  989,  990,  991,  992,  993,  994,  995,  996
  997,  998,  999, 1000, 1001, 1002, 1003, 1004, 1005, 1006, 1007, 1008, 1009, 1010, 1011, 1012
 1013, 1014, 1015, 1016, 1017, 1018, 1019, 1020, 1021, 1022, 1023, 1024, 1025, 1026, 1027, 1028
 1029, 1030, 1031, 1032, 1033, 1034, 1035, 1036, 1037, 1038, 1039, 1040, 1041, 1042, 1043, 1044
 1045, 1046, 1047, 1048, 1049, 1050, 1051, 1052, 1053, 1054, 1055, 1056, 1057, 1058, 1059, 1060
 1061, 1062, 1063, 1064, 1065, 1066, 1067, 1068, 1069, 1070, 1071, 1072, 1073, 1074, 1075, 1076
 1077, 1078, 1079, 1080, 1081, 1082, 1083, 1084, 1085, 1086, 2035, 2036, 2037, 2038, 2039, 2040
 2041, 2042, 2043, 2044, 2045, 2046, 2047, 2048, 2049, 2050, 2051, 2052, 2053, 2054, 2055, 2056
 2057, 2058, 2059, 2060, 2061, 2062, 2063, 2064, 2065, 2066, 2067, 2068, 2069, 2070, 2071, 2072
 2073, 2074, 2075, 2076, 2077, 2078, 2079, 2080, 2081, 2082, 2083, 2084, 2085, 2086, 2087, 2088
 2089, 2090, 2091, 2092, 2093, 2094, 2095, 2096, 2097, 2098, 2099, 2100, 2101, 2102, 2103, 2104
 2105, 2106, 2107, 2108, 2109, 2110, 2111, 2112, 2113, 2114, 2115, 2116, 2117, 2118, 2119, 2120
 2121, 2122, 2123, 2124, 2125, 2126, 2127, 2128, 2129, 2130, 2131, 2132, 2133, 2134, 2135, 2136
 2137, 2138, 2139, 2140, 2141, 2142, 2143, 2144, 2145, 2146, 2147, 2148, 2149, 2150, 2151, 2152
 2153, 2154, 2155, 2156, 2157, 2158, 2159, 2160, 2161, 2162, 2163, 2164, 2165, 2166, 2167, 2168
 2169, 2170, 2171, 2172
** Section: Projectile
*Solid Section, elset=_I2, material=M50_ToolSteel
,
*End Part
**  
*Part, name=TargetPlate
*Node
      1,           0., 0.0888999999,           0.
      2, -0.0888999999,           0.,           0.
      3, -0.101599999,           0.,           0.
      4,           0.,  0.101599999,           0.
      5, -0.0564570874, 0.0686717331, 0.00634999992
      6, -0.0888999999,           0., 0.00634999992
      7, -0.101599999,           0., 0.00634999992
      8,           0.,  0.101599999, 0.00634999992
      9,           0., 0.0888999999, 0.00634999992
     10, -0.0253999997,           0., 0.00634999992
     11, -0.0241355225, 0.00791432429, 0.00634999992
     12,           0., 0.0253999997, 0.00634999992
     13,           0.,           0., 0.00634999992
     14,           0.,           0., -7.67409816e-11
     15, -0.00467797276, 0.0887768343,           0.
     16, -0.00934298337, 0.0884076878,           0.
     17, -0.0139821069, 0.0877935663,           0.
     18, -0.0185824893, 0.0869361907,           0.
     19, -0.023131378,  0.085837923,           0.
     20, -0.0276161768, 0.0845018178,           0.
** ... 5165 like lines cut
*Element, type=C3D8R
  1,  143,  453, 2510,  441,    1,   15,  325,   76
  2,  453,  454, 2511, 2510,   15,   16,  326,  325
  3,  454,  455, 2512, 2511,   16,   17,  327,  326
  4,  455,  456, 2513, 2512,   17,   18,  328,  327
  5,  456,  457, 2514, 2513,   18,   19,  329,  328
  6,  457,  458, 2515, 2514,   19,   20,  330,  329
  7,  458,  459, 2516, 2515,   20,   21,  331,  330
  8,  459,  460, 2517, 2516,   21,   22,  332,  331
  9,  460,  461, 2518, 2517,   22,   23,  333,  332
 10,  461,  462, 2519, 2518,   23,   24,  334,  333
 11,  462,  463, 2520, 2519,   24,   25,  335,  334
 12,  463,  464, 2521, 2520,   25,   26,  336,  335
 13,  464,  465, 2522, 2521,   26,   27,  337,  336
 14,  465,  466, 2523, 2522,   27,   28,  338,  337
 15,  466,  467, 2524, 2523,   28,   29,  339,  338
 16,  467,  468, 2525, 2524,   29,   30,  340,  339
 17,  468,  469, 2526, 2525,   30,   31,  341,  340
 18,  469,  470, 2527, 2526,   31,   32,  342,  341
 19,  470,  471, 2528, 2527,   32,   33,  343,  342
 20,  471,  472, 2529, 2528,   33,   34,  344,  343
** ... 3892 like lines cut
*Nset, nset=_PickedSet103, internal, generate
    1,  5185,     1
*Elset, elset=_PickedSet103, internal, generate
    1,  3912,     1
*Orientation, name=Ori-1
1., 0., 0., 0., 1., 0.
1, 0.
** Section: Matrix
*Solid Section, elset=_PickedSet103, orientation=Ori-1, controls=EC-1, material=Matrix
,
*End Part
**  
**
** ASSEMBLY
**
*Assembly, name=Assembly
**  
*Instance, name=TargetPlate-1, part=TargetPlate
*End Instance
**  
*Instance, name=SteelProjectile-1, part=SteelProjectile
          0.,           0.,     0.011123
          0.,           0.,     0.011123, -0.577350279552042, -0.577350279552042, 0.588473279552042, 119.999999109416
*End Instance
**  
*Nset, nset=AllOutside, instance=TargetPlate-1
    1,    2,    3,    4,    5,    6,    7,    8,    9,   10,   11,   12,   13,   14,   15,   16
   17,   18,   19,   20,   21,   22,   23,   24,   25,   26,   27,   28,   29,   30,   31,   32
   33,   34,   35,   36,   37,   38,   39,   40,   41,   42,   43,   44,   45,   46,   47,   48
   49,   50,   51,   52,   53,   54,   55,   56,   57,   58,   59,   60,   61,   62,   63,   64
   65,   66,   67,   68,   69,   70,   71,   72,   73,   74,   75,   76,   77,   78,   79,   80
   81,   82,   83,   84,   85,   86,   87,   88,   89,   90,   91,   92,   93,   94,   95,   96
   97,   98,   99,  100,  101,  102,  103,  104,  105,  106,  107,  108,  109,  110,  111,  112
  113,  114,  115,  116,  117,  118,  119,  120,  121,  122,  123,  124,  125,  126,  127,  128
  129,  130,  131,  132,  133,  134,  135,  136,  137,  138,  139,  140,  141,  142,  143,  144
  145,  146,  147,  148,  149,  150,  151,  152,  153,  154,  155,  156,  157,  158,  159,  160
  161,  162,  163,  164,  165,  166,  167,  168,  169,  170,  171,  172,  173,  174,  175,  176
  177,  178,  179,  180,  181,  182,  183,  184,  185,  186,  187,  188,  189,  190,  191,  192
  193,  194,  195,  196,  197,  198,  199,  200,  201,  202,  203,  204,  205,  206,  207,  208
  209,  210,  211,  212,  213,  214,  215,  216,  217,  218,  219,  220,  221,  222,  223,  224
  225,  226,  227,  228,  229,  230,  231,  232,  233,  234,  235,  236,  237,  238,  239,  240
  241,  242,  243,  244,  245,  246,  247,  248,  249,  250,  251,  252,  253,  254,  255,  256
  257,  258,  259,  260,  261,  262,  263,  264,  265,  266,  267,  268,  269,  270,  271,  272
  273,  274,  275,  276,  277,  278,  279,  280,  281,  282,  283,  284,  285,  286,  287,  288
  289,  290,  291,  292,  293,  294,  295,  296,  297,  298,  299,  300,  301,  302,  303,  304
  305,  306,  307,  308,  309,  310,  311,  312,  313,  314,  315,  316,  317,  318,  319,  320
** ... 132 like lines cut
*Elset, elset=AllOutside, instance=TargetPlate-1
    1,    2,    3,    4,    5,    6,    7,    8,    9,   10,   11,   12,   13,   14,   15,   16
   17,   18,   19,   20,   21,   22,   23,   24,   25,   26,   27,   28,   29,   30,   31,   32
   33,   34,   35,   36,   37,   38,   39,   40,   41,   42,   43,   44,   45,   46,   47,   48
   49,   50,   51,   52,   53,   54,   55,   56,   57,   58,   59,   60,   61,   62,   63,   64
   65,   66,   67,   68,   69,   70,   71,   72,   73,   74,   75,   76,   77,   78,   79,   80
   81,   82,   83,   84,   85,   86,   87,   88,   89,   90,   91,  120,  121,  150,  151,  152
  153,  154,  155,  156,  157,  158,  159,  160,  161,  162,  163,  164,  165,  166,  167,  168
  169,  170,  171,  172,  173,  174,  175,  176,  177,  178,  179,  180,  181,  210,  211,  240
  241,  242,  243,  244,  245,  246,  247,  248,  249,  250,  251,  252,  253,  254,  255,  256
  257,  258,  259,  260,  261,  262,  263,  264,  265,  266,  267,  268,  269,  270,  271,  272
  273,  274,  275,  276,  277,  278,  279,  280,  281,  282,  283,  284,  285,  286,  287,  288
  289,  290,  291,  292,  293,  294,  295,  296,  297,  298,  299,  300,  301,  302,  303,  304
  305,  306,  307,  308,  309,  310,  311,  312,  313,  314,  315,  316,  317,  318,  319,  320
  321,  322,  323,  324,  325,  326,  327,  328,  329,  330,  331,  332,  333,  334,  335,  336
  337,  338,  339,  340,  341,  342,  343,  344,  345,  346,  347,  348,  349,  350,  351,  352
  353,  354,  355,  356,  357,  358,  359,  360,  361,  362,  363,  364,  365,  366,  367,  368
  369,  370,  371,  372,  373,  374,  375,  376,  377,  378,  379,  380,  381,  382,  383,  384
  385,  386,  387,  388,  389,  390,  391,  392,  393,  394,  395,  396,  397,  398,  399,  400
  401,  402,  403,  404,  405,  406,  407,  408,  409,  410,  411,  412,  413,  414,  415,  416
  417,  418,  419,  420,  421,  422,  423,  424,  425,  426,  427,  428,  429,  430,  431,  432
** ... 117 like lines cut
*Nset, nset=Clamp, instance=TargetPlate-1
   1,   2,   3,   4,   5,   6,   7,   8,   9,  15,  16,  17,  18,  19,  20,  21
  22,  23,  24,  25,  26,  27,  28,  29,  30,  31,  32,  33,  34,  35,  36,  37
  38,  39,  40,  41,  42,  43,  44,  45,  46,  47,  48,  49,  50,  51,  52,  53
  54,  55,  56,  57,  58,  59,  60,  61,  62,  63,  64,  65,  66,  67,  68,  69
  70,  71,  72,  73,  74,  75,  76,  77,  78,  79,  80,  81,  82,  83,  84,  85
  86,  87,  88,  89,  90,  91,  92,  93,  94,  95,  96,  97,  98,  99, 100, 101
 102, 103, 104, 105, 106, 107, 108, 109, 110, 111, 112, 113, 114, 115, 116, 117
 118, 119, 120, 121, 122, 123, 124, 125, 126, 127, 128, 129, 130, 131, 132, 133
 134, 135, 136, 137, 325, 326, 327, 328, 329, 330, 331, 332, 333, 334, 335, 336
 337, 338, 339, 340, 341, 342, 343, 344, 345, 346, 347, 348, 349, 350, 351, 352
 353, 354, 355, 356, 357, 358, 359, 360, 361, 362, 363, 364, 365, 366, 367, 368
 369, 370, 371, 372, 373, 374, 375, 376, 377, 378, 379, 380, 381, 382, 383, 384
 385, 386, 387, 388, 389, 390, 391, 392, 393, 394, 395, 396, 397, 398, 399, 400
 401, 402, 403, 404, 405, 406, 407, 408, 409, 410, 411, 412, 413, 414, 415, 416
 417, 418, 419, 420, 421, 422, 423, 424, 425, 426, 427, 428, 429, 430, 431, 432
 433, 434, 435, 436, 437, 438, 439, 440
*Elset, elset=Clamp, instance=TargetPlate-1
   1,   2,   3,   4,   5,   6,   7,   8,   9,  10,  11,  12,  13,  14,  15,  16
  17,  18,  19,  20,  21,  22,  23,  24,  25,  26,  27,  28,  29,  30,  31,  32
  33,  34,  35,  36,  37,  38,  39,  40,  41,  42,  43,  44,  45,  46,  47,  48
  49,  50,  51,  52,  53,  54,  55,  56,  57,  58,  59,  60,  61,  62,  63,  64
  65,  66,  67,  68,  69,  70,  71,  72,  73,  74,  75,  76,  77,  78,  79,  80
  81,  82,  83,  84,  85,  86,  87,  88,  89,  90, 271, 272, 273, 274, 275, 276
 277, 278, 279, 280, 281, 282, 283, 284, 285, 286, 287, 288, 289, 290, 291, 292
 293, 294, 295, 296, 297, 298, 299, 300, 301, 302, 303, 304, 305, 306, 307, 308
 309, 310, 311, 312, 313, 314, 315, 316, 317, 318, 319, 320, 321, 322, 323, 324
 325, 326, 327, 328, 329, 330, 331, 332, 333, 334, 335, 336, 337, 338, 339, 340
 341, 342, 343, 344, 345, 346, 347, 348, 349, 350, 351, 352, 353, 354, 355, 356
 357, 358, 359, 360
*Nset, nset=HOST, instance=TargetPlate-1, generate
    1,  5185,     1
*Elset, elset=HOST, instance=TargetPlate-1, generate
    1,  3912,     1
*Nset, nset=SymmX, instance=TargetPlate-1
    1,    4,    8,    9,   12,   13,   14,   75,   76,  136,  137,  138,  139,  140,  141,  142
  143,  190,  191,  192,  193,  194,  195,  196,  197,  198,  199,  200,  201,  202,  203,  204
  205,  206,  207,  208,  209,  210,  211,  228,  229,  230,  231,  232,  233,  234,  235,  236
  237,  238,  239,  240,  241,  242,  243,  244,  245,  246,  247,  248,  249,  250,  251,  252
  253,  254,  255,  256,  257,  258,  259,  260,  261,  262,  263,  264,  265,  266,  267,  268
  269,  270,  271,  272,  273,  274,  275,  276,  277,  278,  279,  280,  281,  282,  283,  284
  285,  441,  442,  443,  444,  445,  446, 2276, 2277, 2278, 2279, 2280, 2281, 2282, 2283, 2284
 2285, 2286, 2287, 2288, 2289, 2290, 2291, 2292, 2293, 2294, 2295, 2296, 2297, 2298, 2299, 2300
 2301, 2302, 2303, 2304, 2305, 2306, 2307, 2308, 2309, 2310, 2311, 2312, 2313, 2314, 2315, 2316
 2317, 2318, 2319, 2320, 2321, 2322, 2323, 2324, 2325, 2326, 2327, 2328, 2329, 2330, 2331, 2332
 2333, 2334, 2335, 2336, 2337, 2338, 2339, 2340, 2341, 2342, 2343, 2344, 2345, 2346, 2347, 2348
 2349, 2350, 2351, 2352, 2353, 2354, 2355, 2356, 2357, 2358, 2359, 2360, 2361, 2362, 2363, 2364
 2365, 2366, 2367, 2368, 2369, 2370, 2371, 2372, 2373, 2374, 2375, 2376, 2377, 2378, 2379, 2380
 2381, 2382, 2383, 2384, 2385, 2386, 2387, 2388, 2389, 2390, 2391, 2392
*Nset, nset=SymmX, instance=SteelProjectile-1
   2,   3,   5,   6,   7,   8,   9,  10,  11,  12,  13,  14,  15,  16,  17,  18
  19,  20,  21,  22,  23,  92,  93,  94,  95,  96,  97,  98,  99, 100, 101, 102
 103, 104, 105, 106, 107, 108, 109, 110, 111, 112, 113, 114, 115, 116, 117, 118
 119, 120, 576, 577, 578, 579, 580, 581, 582, 583, 584, 585, 586, 587, 588, 589
 590, 591, 592, 593, 594, 595, 596, 597, 598, 599, 600, 601, 602, 603, 604, 605
 606, 607, 608, 609, 610, 611, 612, 613, 614, 615, 616, 617, 618, 619, 620, 621
 622, 623, 624, 625, 626, 627, 628, 629, 630, 631, 632, 633, 634, 635, 636, 637
 638, 639, 640, 641, 642, 643, 644, 645, 646, 647, 648, 649, 650, 651, 652, 653
 654, 655, 656, 657, 658, 659, 660, 661, 662, 663, 664, 665, 666, 667, 668, 669
 670, 671, 672, 673, 674, 675, 676, 677, 678, 679, 680, 681, 682, 683, 684, 685
 686, 687, 688, 689, 690, 691, 692, 693, 694, 695, 696, 697, 698, 699, 700, 701
 702, 703, 704, 705, 706, 707, 708, 709, 710, 711, 712, 713, 714, 715, 716, 717
 718, 719, 720, 721, 722, 723, 724, 725, 726, 727, 728, 729, 730
*Elset, elset=SymmX, instance=TargetPlate-1
    1,   31,   61,   91,  121,  151,  181,  211,  241,  271,  301,  331,  419,  420,  421,  422
  425,  426,  427,  428,  429,  431,  432,  433,  434,  435,  436,  437,  467,  476,  479,  719
  753,  773,  799, 1026, 1030, 1031, 1033, 1034, 1047, 1048, 1051, 1055, 1057, 1058, 1059, 1072
 1074, 1076, 1083, 1091, 1307, 1308, 1309, 1310, 1313, 1314, 1315, 1316, 1317, 1319, 1320, 1321
 1322, 1323, 1324, 1325, 1355, 1364, 1367, 1607, 1641, 1661, 1687, 1914, 1918, 1919, 1921, 1922
 1935, 1936, 1939, 1943, 1945, 1946, 1947, 1960, 1962, 1964, 1971, 1979, 2195, 2196, 2197, 2198
 2201, 2202, 2203, 2204, 2205, 2207, 2208, 2209, 2210, 2211, 2212, 2213, 2243, 2252, 2255, 2495
 2529, 2549, 2575, 2802, 2806, 2807, 2809, 2810, 2823, 2824, 2827, 2831, 2833, 2834, 2835, 2848
 2850, 2852, 2859, 2867, 3083, 3084, 3085, 3086, 3089, 3090, 3091, 3092, 3093, 3095, 3096, 3097
 3098, 3099, 3100, 3101, 3131, 3140, 3143, 3383, 3417, 3437, 3463, 3690, 3694, 3695, 3697, 3698
 3711, 3712, 3715, 3719, 3721, 3722, 3723, 3736, 3738, 3740, 3747, 3755
*Elset, elset=SymmX, instance=SteelProjectile-1
 1877, 1878, 1879, 1880, 1881, 1882, 1883, 1884, 1885, 1886, 1887, 1888, 1889, 1890, 1891, 1892
 1893, 1894, 1895, 1896, 1897, 1898, 1899, 1900, 1901, 1902, 1903, 1904, 1905, 1906, 1907, 1908
 1909, 1910, 1911, 1912, 1913, 1914, 1915, 1916, 1917, 1918, 1919, 1920, 1921, 1922, 1923, 1924
 1925, 1926, 1927, 1928, 1929, 1930, 1931, 1932, 1933, 1934, 1935, 1936, 1937, 1938, 1939, 1940
 1941, 1942, 1943, 1944, 1945, 1946, 1947, 1948, 1949, 1950, 1951, 1952, 1953, 1954, 1955, 1956
 1957, 1958, 1959, 1960, 1961, 1962, 1963, 1964, 1965, 1966, 1967, 1968, 1969, 1970, 1971, 1972
 1973, 1974, 1975, 1976, 1977, 1978, 1979, 1980, 1981, 1982, 1983, 1984, 1985, 1986, 1987, 1988
 1989, 1990, 1991, 1992, 1993, 1994, 1995, 1996, 1997, 1998, 1999, 2000, 2001, 2002, 2003, 2004
 2005, 2006, 2007, 2008, 2009, 2010, 2011, 2012, 2013, 2014, 2015, 2016, 2017, 2018, 2019, 2020
 2021, 2022, 2023, 2024, 2025, 2026, 2027, 2028, 2029, 2030, 2031, 2032, 2033, 2034, 2130, 2131
 2132, 2133, 2134, 2135, 2136, 2137, 2138, 2139, 2140, 2141, 2142, 2143, 2144, 2145, 2146, 2147
 2148, 2169, 2170, 2171, 2172
*Nset, nset=Symmy, instance=TargetPlate-1
    2,    3,    6,    7,   10,   13,   14,   44,   45,  105,  106,  144,  145,  146,  147,  148
  149,  150,  151,  152,  153,  154,  155,  156,  157,  158,  159,  160,  161,  162,  163,  164
  165,  166,  167,  168,  169,  170,  171,  212,  213,  214,  215,  216,  217,  218,  219,  220
  221,  222,  223,  224,  225,  226,  227,  244,  245,  246,  286,  287,  288,  289,  290,  291
  292,  293,  294,  295,  296,  297,  298,  299,  300,  301,  302,  303,  304,  305,  306,  307
  308,  309,  310,  311,  312,  313,  314,  315,  316,  317,  318,  319,  320,  321,  322,  323
  324,  447,  448,  449,  450,  451,  452, 2393, 2394, 2395, 2396, 2397, 2398, 2399, 2400, 2401
 2402, 2403, 2404, 2405, 2406, 2407, 2408, 2409, 2410, 2411, 2412, 2413, 2414, 2415, 2416, 2417
 2418, 2419, 2420, 2421, 2422, 2423, 2424, 2425, 2426, 2427, 2428, 2429, 2430, 2431, 2432, 2433
 2434, 2435, 2436, 2437, 2438, 2439, 2440, 2441, 2442, 2443, 2444, 2445, 2446, 2447, 2448, 2449
 2450, 2451, 2452, 2453, 2454, 2455, 2456, 2457, 2458, 2459, 2460, 2461, 2462, 2463, 2464, 2465
 2466, 2467, 2468, 2469, 2470, 2471, 2472, 2473, 2474, 2475, 2476, 2477, 2478, 2479, 2480, 2481
 2482, 2483, 2484, 2485, 2486, 2487, 2488, 2489, 2490, 2491, 2492, 2493, 2494, 2495, 2496, 2497
 2498, 2499, 2500, 2501, 2502, 2503, 2504, 2505, 2506, 2507, 2508, 2509
*Nset, nset=Symmy, instance=SteelProjectile-1
   2,   3,   4,   6,   7,   8,   9,  10,  11,  12,  13,  14,  15,  16,  17,  18
  19,  20,  21,  22,  23,  58,  59,  60,  61,  62,  63,  64,  65,  66,  67,  68
  69,  70,  71,  72,  73,  74,  75,  76,  77,  78,  79,  80,  81,  82,  83,  84
  85,  86, 276, 277, 278, 279, 280, 281, 282, 283, 284, 285, 286, 287, 288, 289
 290, 291, 292, 293, 294, 295, 296, 297, 298, 299, 300, 301, 302, 303, 304, 305
 306, 307, 308, 309, 310, 311, 312, 313, 314, 315, 316, 317, 318, 319, 320, 321
 322, 323, 324, 325, 326, 327, 328, 329, 330, 331, 332, 333, 334, 335, 336, 337
 338, 339, 340, 341, 342, 343, 344, 345, 346, 347, 348, 349, 350, 351, 352, 353
 354, 355, 356, 357, 358, 359, 360, 361, 362, 363, 364, 365, 366, 367, 368, 369
 370, 371, 372, 373, 374, 375, 376, 377, 378, 379, 380, 381, 382, 383, 384, 385
 386, 387, 388, 389, 390, 391, 392, 393, 394, 395, 396, 397, 398, 399, 400, 401
 402, 403, 404, 405, 406, 407, 408, 409, 410, 411, 412, 413, 414, 415, 416, 417
 418, 419, 420, 421, 422, 423, 424, 425, 426, 427, 428, 429, 430
*Elset, elset=Symmy, instance=TargetPlate-1
   30,   60,   90,  120,  150,  180,  210,  240,  270,  300,  330,  360,  363,  365,  367,  380
  390,  392,  393,  395,  398,  399,  400,  401,  402,  403,  404,  408,  409,  411,  679,  721
  723,  795,  828, 1025, 1027, 1029, 1033, 1036, 1037, 1039, 1041, 1043, 1044, 1045, 1046, 1060
 1069, 1075, 1082, 1094, 1251, 1253, 1255, 1268, 1278, 1280, 1281, 1283, 1286, 1287, 1288, 1289
 1290, 1291, 1292, 1296, 1297, 1299, 1567, 1609, 1611, 1683, 1716, 1913, 1915, 1917, 1921, 1924
 1925, 1927, 1929, 1931, 1932, 1933, 1934, 1948, 1957, 1963, 1970, 1982, 2139, 2141, 2143, 2156
 2166, 2168, 2169, 2171, 2174, 2175, 2176, 2177, 2178, 2179, 2180, 2184, 2185, 2187, 2455, 2497
 2499, 2571, 2604, 2801, 2803, 2805, 2809, 2812, 2813, 2815, 2817, 2819, 2820, 2821, 2822, 2836
 2845, 2851, 2858, 2870, 3027, 3029, 3031, 3044, 3054, 3056, 3057, 3059, 3062, 3063, 3064, 3065
 3066, 3067, 3068, 3072, 3073, 3075, 3343, 3385, 3387, 3459, 3492, 3689, 3691, 3693, 3697, 3700
 3701, 3703, 3705, 3707, 3708, 3709, 3710, 3724, 3733, 3739, 3746, 3758
*Elset, elset=Symmy, instance=SteelProjectile-1
  791,  792,  793,  794,  795,  796,  797,  798,  799,  800,  801,  802,  803,  804,  805,  806
  807,  808,  809,  810,  811,  812,  813,  814,  815,  816,  817,  818,  819,  820,  821,  822
  823,  824,  825,  826,  827,  828,  829,  830,  831,  832,  833,  834,  835,  836,  837,  838
  839,  840,  841,  842,  843,  844,  845,  846,  847,  848,  849,  850,  851,  852,  853,  854
  855,  856,  857,  858,  859,  860,  861,  862,  863,  864,  865,  866,  867,  868,  869,  870
  871,  872,  873,  874,  875,  876,  877,  878,  879,  880,  881,  882,  883,  884,  885,  886
  887,  888,  889,  890,  891,  892,  893,  894,  895,  896,  897,  898,  899,  900,  901,  902
  903,  904,  905,  906,  907,  908,  909,  910,  911,  912,  913,  914,  915,  916,  917,  918
  919,  920,  921,  922,  923,  924,  925,  926,  927,  928,  929,  930,  931,  932,  933,  934
  935,  936,  937,  938,  939,  940,  941,  942,  943,  944,  945,  946,  947,  948, 1044, 1045
 1046, 1047, 1048, 1049, 1050, 1051, 1052, 1053, 1054, 1055, 1056, 1057, 1058, 1059, 1060, 1061
 1062, 1083, 1084, 1085, 1086
*Elset, elset=_ALLCONT_S2, internal, instance=TargetPlate-1
    1,    2,    3,    4,    5,    6,    7,    8,    9,   10,   11,   12,   13,   14,   15,   16
   17,   18,   19,   20,   21,   22,   23,   24,   25,   26,   27,   28,   29,   30,   31,   32
   33,   34,   35,   36,   37,   38,   39,   40,   41,   42,   43,   44,   45,   46,   47,   48
   49,   50,   51,   52,   53,   54,   55,   56,   57,   58,   59,   60,   61,   62,   63,   64
   65,   66,   67,   68,   69,   70,   71,   72,   73,   74,   75,   76,   77,   78,   79,   80
   81,   82,   83,   84,   85,   86,   87,   88,   89,   90, 3025, 3026, 3027, 3028, 3029, 3030
 3031, 3032, 3033, 3034, 3035, 3036, 3037, 3038, 3039, 3040, 3041, 3042, 3043, 3044, 3045, 3046
 3047, 3048, 3049, 3050, 3051, 3052, 3053, 3054, 3055, 3056, 3057, 3058, 3059, 3060, 3061, 3062
 3063, 3064, 3065, 3066, 3067, 3068, 3069, 3070, 3071, 3072, 3073, 3074, 3075, 3076, 3077, 3078
 3079, 3080, 3081, 3082, 3083, 3084, 3085, 3086, 3087, 3088, 3089, 3090, 3091, 3092, 3093, 3094
 3095, 3096, 3097, 3098, 3099, 3100, 3101, 3102, 3103, 3104, 3105, 3106, 3107, 3108, 3109, 3110
 3111, 3112, 3113, 3114, 3115, 3116, 3117, 3118, 3119, 3120, 3121, 3122, 3123, 3124, 3125, 3126
 3127, 3128, 3129, 3130, 3131, 3132, 3133, 3134, 3135, 3136, 3137, 3138, 3139, 3140, 3141, 3142
 3143, 3144, 3145, 3146, 3147, 3148, 3149, 3150, 3151, 3152, 3153, 3154, 3155, 3156, 3157, 3158
 3159, 3160, 3161, 3162, 3163, 3164, 3165, 3166, 3167, 3168, 3169, 3170, 3171, 3172, 3173, 3174
 3175, 3176, 3177, 3178, 3179, 3180, 3181, 3182, 3183, 3184, 3185, 3186, 3187, 3188, 3189, 3190
 3191, 3192, 3193, 3194, 3195, 3196, 3197, 3198, 3199, 3200, 3201, 3202, 3203, 3204, 3205, 3206
 3207, 3208, 3209, 3210, 3211, 3212, 3213, 3214, 3215, 3216, 3217, 3218, 3219, 3220, 3221, 3222
 3223, 3224, 3225, 3226, 3227, 3228, 3229, 3230, 3231, 3232, 3233, 3234, 3235, 3236, 3237, 3238
 3239, 3240, 3241, 3242, 3243, 3244, 3245, 3246, 3247, 3248, 3249, 3250, 3251, 3252, 3253, 3254
** ... 42 like lines cut
*Elset, elset=_ALLCONT_S2, internal, instance=SteelProjectile-1
  791,  792,  793,  794,  795,  796,  797,  798,  799,  800,  801,  802,  803,  804,  805,  806
  807,  808,  809,  810,  811,  812,  813,  814,  815,  816,  817,  818,  819,  820,  821,  822
  823,  824,  825,  826,  827,  828,  829,  830,  831,  832,  833,  834,  835,  836,  837,  838
  839,  840,  841,  842,  843,  844,  845,  846,  847,  848,  849,  850,  851,  852,  853,  854
  855,  856,  857,  858,  859,  860,  861,  862,  863,  864,  865,  866,  867,  868,  869,  870
  871,  872,  873,  874,  875,  876,  877,  878,  879,  880,  881,  882,  883,  884,  885,  886
  887,  888,  889,  890,  891,  892,  893,  894,  895,  896,  897,  898,  899,  900,  901,  902
  903,  904,  905,  906,  907,  908,  909,  910,  911,  912,  913,  914,  915,  916,  917,  918
  919,  920,  921,  922,  923,  924,  925,  926,  927,  928,  929,  930,  931,  932,  933,  934
  935,  936,  937,  938,  939,  940,  941,  942,  943,  944,  945,  946,  947,  948,  949,  968
  987, 1006, 1025, 1044, 1083, 1084, 1085, 1086, 1877, 1878, 1879, 1880, 1881, 1882, 1883, 1884
 1885, 1886, 1887, 1888, 1889, 1890, 1891, 1892, 1893, 1894, 1895, 1896, 1897, 1898, 1899, 1900
 1901, 1902, 1903, 1904, 1905, 1906, 1907, 1908, 1909, 1910, 1911, 1912, 1913, 1914, 1915, 1916
 1917, 1918, 1919, 1920, 1921, 1922, 1923, 1924, 1925, 1926, 1927, 1928, 1929, 1930, 1931, 1932
 1933, 1934, 1935, 1936, 1937, 1938, 1939, 1940, 1941, 1942, 1943, 1944, 1945, 1946, 1947, 1948
 1949, 1950, 1951, 1952, 1953, 1954, 1955, 1956, 1957, 1958, 1959, 1960, 1961, 1962, 1963, 1964
 1965, 1966, 1967, 1968, 1969, 1970, 1971, 1972, 1973, 1974, 1975, 1976, 1977, 1978, 1979, 1980
 1981, 1982, 1983, 1984, 1985, 1986, 1987, 1988, 1989, 1990, 1991, 1992, 1993, 1994, 1995, 1996
 1997, 1998, 1999, 2000, 2001, 2002, 2003, 2004, 2005, 2006, 2007, 2008, 2009, 2010, 2011, 2012
 2013, 2014, 2015, 2016, 2017, 2018, 2019, 2020, 2021, 2022, 2023, 2024, 2025, 2026, 2027, 2028
 2029, 2030, 2031, 2032, 2033, 2034, 2053, 2072, 2091, 2110, 2129, 2148, 2169, 2170, 2171, 2172
*Elset, elset=_ALLCONT_S6, internal, instance=TargetPlate-1
    1,   31,   61,   91,  121,  151,  181,  211,  241,  271,  301,  331,  380,  419,  420,  421
  422,  425,  426,  427,  428,  429,  431,  432,  433,  434,  435,  437,  745,  753,  826,  829
  830,  837,  840,  852,  855,  861,  882,  952,  969,  970, 1036, 1039, 1041, 1044, 1045, 1046
 1047, 1048, 1051, 1055, 1059, 1060, 1082, 1083, 1091, 1094, 1268, 1307, 1308, 1309, 1310, 1313
 1314, 1315, 1316, 1317, 1319, 1320, 1321, 1322, 1323, 1325, 1633, 1641, 1714, 1717, 1718, 1725
 1728, 1740, 1743, 1749, 1770, 1840, 1857, 1858, 1924, 1927, 1929, 1932, 1933, 1934, 1935, 1936
 1939, 1943, 1947, 1948, 1970, 1971, 1979, 1982, 2156, 2195, 2196, 2197, 2198, 2201, 2202, 2203
 2204, 2205, 2207, 2208, 2209, 2210, 2211, 2213, 2521, 2529, 2602, 2605, 2606, 2613, 2616, 2628
 2631, 2637, 2658, 2728, 2745, 2746, 2812, 2815, 2817, 2820, 2821, 2822, 2823, 2824, 2827, 2831
 2835, 2836, 2858, 2859, 2867, 2870, 3044, 3083, 3084, 3085, 3086, 3089, 3090, 3091, 3092, 3093
 3095, 3096, 3097, 3098, 3099, 3101, 3409, 3417, 3490, 3493, 3494, 3501, 3504, 3516, 3519, 3525
 3546, 3616, 3633, 3634, 3700, 3703, 3705, 3708, 3709, 3710, 3711, 3712, 3715, 3719, 3723, 3724
 3746, 3747, 3755, 3758
*Elset, elset=_ALLCONT_S6, internal, instance=SteelProjectile-1
   23,   26,  102,  121,  140,  181,  184,  260,  279,  298,  339,  342,  418,  437,  456,  497
  500,  576,  595,  614,  655,  658,  734,  753,  772,  813,  816,  892,  911,  930, 1121, 1139
 1144, 1279, 1297, 1302, 1437, 1455, 1460, 1595, 1613, 1618, 1753, 1771, 1776, 1911, 1929, 1934
*Elset, elset=_ALLCONT_S4, internal, instance=TargetPlate-1
   30,   60,   90,  120,  150,  180,  210,  240,  270,  300,  330,  360,  436,  467,  476,  479
  719,  765,  773,  799,  856,  857,  858,  859,  860,  863,  864,  971, 1025, 1026, 1027, 1029
 1030, 1031, 1033, 1034, 1037, 1043, 1057, 1058, 1069, 1072, 1074, 1075, 1076, 1324, 1355, 1364
 1367, 1607, 1653, 1661, 1687, 1744, 1745, 1746, 1747, 1748, 1751, 1752, 1859, 1913, 1914, 1915
 1917, 1918, 1919, 1921, 1922, 1925, 1931, 1945, 1946, 1957, 1960, 1962, 1963, 1964, 2212, 2243
 2252, 2255, 2495, 2541, 2549, 2575, 2632, 2633, 2634, 2635, 2636, 2639, 2640, 2747, 2801, 2802
 2803, 2805, 2806, 2807, 2809, 2810, 2813, 2819, 2833, 2834, 2845, 2848, 2850, 2851, 2852, 3100
 3131, 3140, 3143, 3383, 3429, 3437, 3463, 3520, 3521, 3522, 3523, 3524, 3527, 3528, 3635, 3689
 3690, 3691, 3693, 3694, 3695, 3697, 3698, 3701, 3707, 3721, 3722, 3733, 3736, 3738, 3739, 3740
*Elset, elset=_ALLCONT_S4, internal, instance=SteelProjectile-1
   25,   57,  120,  139,  158,  183,  215,  278,  297,  316,  341,  373,  436,  455,  474,  499
  531,  594,  613,  632,  657,  689,  752,  771,  790,  815,  847,  910,  929,  948, 1088, 1093
 1096, 1097, 1103, 1114, 1115, 1116, 1118, 1119, 1123, 1124, 1129, 1132, 1140, 1148, 1246, 1251
 1254, 1255, 1261, 1272, 1273, 1274, 1276, 1277, 1281, 1282, 1287, 1290, 1298, 1306, 1404, 1409
 1412, 1413, 1419, 1430, 1431, 1432, 1434, 1435, 1439, 1440, 1445, 1448, 1456, 1464, 1562, 1567
 1570, 1571, 1577, 1588, 1589, 1590, 1592, 1593, 1597, 1598, 1603, 1606, 1614, 1622, 1720, 1725
 1728, 1729, 1735, 1746, 1747, 1748, 1750, 1751, 1755, 1756, 1761, 1764, 1772, 1780, 1878, 1883
 1886, 1887, 1893, 1904, 1905, 1906, 1908, 1909, 1913, 1914, 1919, 1922, 1930, 1938
*Elset, elset=_ALLCONT_S1, internal, instance=TargetPlate-1, generate
  271,  1248,     1
*Elset, elset=_ALLCONT_S1, internal, instance=SteelProjectile-1
    1,    2,    3,    4,    5,    6,    7,    8,    9,   10,   11,   12,   13,   14,   15,   16
   17,   18,   19,   20,   21,   22,   23,   24,   25,   26,   27,   28,   29,   30,   31,   32
   33,   34,   35,   36,   37,   38,   39,   40,   41,   42,   43,   44,   45,   46,   47,   48
   49,   50,   51,   52,   53,   54,   55,   56,   57,   58,   59,   60,   61,   62,   63,   64
   65,   66,   67,   68,   69,   70,   71,   72,   73,   74,   75,   76,   77,   78,   79,   80
   81,   82,   83,   84,   85,   86,   87,   88,   89,   90,   91,   92,   93,   94,   95,   96
   97,   98,   99,  100,  101,  102,  103,  104,  105,  106,  107,  108,  109,  110,  111,  112
  113,  114,  115,  116,  117,  118,  119,  120,  121,  122,  123,  124,  125,  126,  127,  128
  129,  130,  131,  132,  133,  134,  135,  136,  137,  138,  139,  140,  141,  142,  143,  144
  145,  146,  147,  148,  149,  150,  151,  152,  153,  154,  155,  156,  157,  158,  967,  986
 1005, 1024, 1043, 1062, 1063, 1064, 1065, 1066, 1087, 1088, 1089, 1090, 1091, 1092, 1093, 1094
 1095, 1096, 1097, 1098, 1099, 1100, 1101, 1102, 1103, 1104, 1105, 1106, 1107, 1108, 1109, 1110
 1111, 1112, 1113, 1114, 1115, 1116, 1117, 1118, 1119, 1120, 1121, 1122, 1123, 1124, 1125, 1126
 1127, 1128, 1129, 1130, 1131, 1132, 1133, 1134, 1135, 1136, 1137, 1138, 1139, 1140, 1141, 1142
 1143, 1144, 1145, 1146, 1147, 1148, 1149, 1150, 1151, 1152, 1153, 1154, 1155, 1156, 1157, 1158
 1159, 1160, 1161, 1162, 1163, 1164, 1165, 1166, 1167, 1168, 1169, 1170, 1171, 1172, 1173, 1174
 1175, 1176, 1177, 1178, 1179, 1180, 1181, 1182, 1183, 1184, 1185, 1186, 1187, 1188, 1189, 1190
 1191, 1192, 1193, 1194, 1195, 1196, 1197, 1198, 1199, 1200, 1201, 1202, 1203, 1204, 1205, 1206
 1207, 1208, 1209, 1210, 1211, 1212, 1213, 1214, 1215, 1216, 1217, 1218, 1219, 1220, 1221, 1222
 1223, 1224, 1225, 1226, 1227, 1228, 1229, 1230, 1231, 1232, 1233, 1234, 1235, 1236, 1237, 1238
 1239, 1240, 1241, 1242, 1243, 1244, 2035, 2054, 2073, 2092, 2111, 2130, 2149, 2150, 2151, 2152
*Elset, elset=_ALLCONT_S5, internal, instance=TargetPlate-1
   61,   62,   63,   64,   65,   66,   67,   68,   69,   70,   71,   72,   73,   74,   75,   76
   77,   78,   79,   80,   81,   82,   83,   84,   85,   86,   87,   88,   89,   90,  151,  152
  153,  154,  155,  156,  157,  158,  159,  160,  161,  162,  163,  164,  165,  166,  167,  168
  169,  170,  171,  172,  173,  174,  175,  176,  177,  178,  179,  180,  241,  242,  243,  244
  245,  246,  247,  248,  249,  250,  251,  252,  253,  254,  255,  256,  257,  258,  259,  260
  261,  262,  263,  264,  265,  266,  267,  268,  269,  270,  331,  332,  333,  334,  335,  336
  337,  338,  339,  340,  341,  342,  343,  344,  345,  346,  347,  348,  349,  350,  351,  352
  353,  354,  355,  356,  357,  358,  359,  360,  363,  380,  390,  392,  393,  399,  400,  420
  679,  721,  825,  828,  974, 1033, 1251, 1268, 1278, 1280, 1281, 1287, 1288, 1308, 1567, 1609
 1713, 1716, 1862, 1921, 2139, 2156, 2166, 2168, 2169, 2175, 2176, 2196, 2455, 2497, 2601, 2604
 2750, 2809, 3027, 3044, 3054, 3056, 3057, 3063, 3064, 3084, 3343, 3385, 3489, 3492, 3638, 3697
*Elset, elset=_ALLCONT_S5, internal, instance=SteelProjectile-1
    2,    7,   10,   11,   17,   28,   29,   30,   32,   33,   37,   38,   43,   46,   54,   62
  160,  165,  168,  169,  175,  186,  187,  188,  190,  191,  195,  196,  201,  204,  212,  220
  318,  323,  326,  327,  333,  344,  345,  346,  348,  349,  353,  354,  359,  362,  370,  378
  476,  481,  484,  485,  491,  502,  503,  504,  506,  507,  511,  512,  517,  520,  528,  536
  634,  639,  642,  643,  649,  660,  661,  662,  664,  665,  669,  670,  675,  678,  686,  694
  792,  797,  800,  801,  807,  818,  819,  820,  822,  823,  827,  828,  833,  836,  844,  852
 1044, 1045, 1046, 1047, 1048, 1049, 1050, 1051, 1052, 1053, 1054, 1055, 1056, 1057, 1058, 1059
 1060, 1061, 1062, 1111, 1143, 1206, 1225, 1244, 1269, 1301, 1364, 1383, 1402, 1427, 1459, 1522
 1541, 1560, 1585, 1617, 1680, 1699, 1718, 1743, 1775, 1838, 1857, 1876, 1901, 1933, 1996, 2015
 2034, 2130, 2131, 2132, 2133, 2134, 2135, 2136, 2137, 2138, 2139, 2140, 2141, 2142, 2143, 2144
 2145, 2146, 2147, 2148
*Elset, elset=_ALLCONT_S3, internal, instance=TargetPlate-1
    1,    2,    3,    4,    5,    6,    7,    8,    9,   10,   11,   12,   13,   14,   15,   16
   17,   18,   19,   20,   21,   22,   23,   24,   25,   26,   27,   28,   29,   30,   91,   92
   93,   94,   95,   96,   97,   98,   99,  100,  101,  102,  103,  104,  105,  106,  107,  108
  109,  110,  111,  112,  113,  114,  115,  116,  117,  118,  119,  120,  181,  182,  183,  184
  185,  186,  187,  188,  189,  190,  191,  192,  193,  194,  195,  196,  197,  198,  199,  200
  201,  202,  203,  204,  205,  206,  207,  208,  209,  210,  271,  272,  273,  274,  275,  276
  277,  278,  279,  280,  281,  282,  283,  284,  285,  286,  287,  288,  289,  290,  291,  292
  293,  294,  295,  296,  297,  298,  299,  300,  365,  367,  395,  398,  401,  402,  403,  404
  408,  409,  411,  723,  795,  854,  953,  964,  965, 1253, 1255, 1283, 1286, 1289, 1290, 1291
 1292, 1296, 1297, 1299, 1611, 1683, 1742, 1841, 1852, 1853, 2141, 2143, 2171, 2174, 2177, 2178
 2179, 2180, 2184, 2185, 2187, 2499, 2571, 2630, 2729, 2740, 2741, 3029, 3031, 3059, 3062, 3065
 3066, 3067, 3068, 3072, 3073, 3075, 3387, 3459, 3518, 3617, 3628, 3629
*Elset, elset=_ALLCONT_S3, internal, instance=SteelProjectile-1
   35,   53,   58,  193,  211,  216,  351,  369,  374,  509,  527,  532,  667,  685,  690,  825
  843,  848,  949,  950,  951,  952,  953,  954,  955,  956,  957,  958,  959,  960,  961,  962
  963,  964,  965,  966,  967, 1109, 1112, 1188, 1207, 1226, 1267, 1270, 1346, 1365, 1384, 1425
 1428, 1504, 1523, 1542, 1583, 1586, 1662, 1681, 1700, 1741, 1744, 1820, 1839, 1858, 1899, 1902
 1978, 1997, 2016, 2035, 2036, 2037, 2038, 2039, 2040, 2041, 2042, 2043, 2044, 2045, 2046, 2047
 2048, 2049, 2050, 2051, 2052, 2053
*Surface, type=ELEMENT, name=ALLCONT
_ALLCONT_S2, S2
_ALLCONT_S6, S6
_ALLCONT_S4, S4
_ALLCONT_S1, S1
_ALLCONT_S5, S5
_ALLCONT_S3, S3
*End Assembly
** 
** ELEMENT CONTROLS
** 
*Section Controls, name=EC-1, ELEMENT DELETION=YES, MAX DEGRADATION=0.05
1., 1., 1.
*Section Controls, name=EC-2, ELEMENT DELETION=YES
1., 1., 1.
** 
** MATERIALS
** 
*Material, name=FIBERS_Fail
*Damage Initiation, criterion=DUCTILE
 0.03,   0., 0.01
*Damage Evolution, type=ENERGY
1.,
*Density
981.,
*Elastic
 2e+08, 0.3
*Plastic
 2.5e+09,0.
*Rate Dependent
1., 0.08
*Material, name=Fibers
*Density
981.,
*Elastic
 2e+08, 0.3
*Material, name=HardSteel
*Density
8000.,
*Elastic
 4e+11, 0.3
** Properties from Matweb: AISI Type M50 Tool Steel
*Material, name=M50_ToolSteel
*Damage Initiation, criterion=DUCTILE
 0.198, 0.33333,  0.0002
*Damage Evolution, type=ENERGY
201000.,
*Density
7970.,
*Elastic
 2.034e+11, 0.3
*Plastic
 1.894e+09,0.
*Material, name=Matrix
*Density
308.,
*Elastic, type=ORTHOTROPIC
 4.2e+10, 2.4e+09, 4.2e+10, 2.7e+09, 2.7e+09, 4.6e+09,   4e+08,   4e+08
   9e+08,
*Material, name=Polyurethane
*Density
980.,
*Elastic
 5.0776e+06,0.
*Plastic
     611343.,        0.
     663262., 0.0101742
     708155., 0.0198202
     753051., 0.0302479
     797940., 0.0419179
     842825., 0.0559543
     887708., 0.0735315
     932591.,  0.095815
     977476.,  0.122588
 1.02236e+06,   0.15079
 1.06725e+06,  0.177094
 1.11214e+06,  0.201089
 1.15702e+06,  0.225864
 1.20191e+06,  0.254717
 1.24679e+06,  0.290236
 1.29168e+06,  0.329759
 1.33656e+06,  0.368304
 1.38145e+06,   0.40377
 1.42634e+06,   0.43864
 1.47122e+06,  0.475688
** ... 71 like lines cut
** 
** INTERACTION PROPERTIES
** 
*Surface Interaction, name=IntProp-1
*Friction
 0.42,
** 
** BOUNDARY CONDITIONS
** 
** Name: Clamp Type: Symmetry/Antisymmetry/Encastre
*Boundary
Clamp, ENCASTRE
** Name: SymmX Type: Symmetry/Antisymmetry/Encastre
*Boundary
SymmX, XSYMM
** Name: Symmy Type: Symmetry/Antisymmetry/Encastre
*Boundary
Symmy, YSYMM
** 
** PREDEFINED FIELDS
** 
** Name: ProjectileVel   Type: Velocity
*Initial Conditions, type=VELOCITY
SteelProjectile-1.All, 1, 0.
SteelProjectile-1.All, 2, 0.
SteelProjectile-1.All, 3, -500.
** ----------------------------------------------------------------
** 
** STEP: Step-1
** 
*Step, name=Step-1, nlgeom=YES
*Dynamic, Explicit
, 0.00015
*Bulk Viscosity
0.06, 1.2
** 
** INTERACTIONS
** 
** Interaction: GeneralContact
*Contact, op=NEW
*Contact Inclusions
ALLCONT , 
*Contact Property Assignment
 ,  , IntProp-1
** 
** OUTPUT REQUESTS
** 
*Restart, write, number interval=1, time marks=NO
** 
** FIELD OUTPUT: F-Output-1
** 
*Output, field, number interval=200
*Node Output
A, U, V
*Element Output, directions=YES
CFAILURE, DMICRT, ER, LE, MISES, PE, PEEQ, S, SDEG, SEQUT, STATUS
*Contact Output
CSTRESS, 
** 
** HISTORY OUTPUT: H-Output-1
** 
*Output, history, variable=PRESELECT
*End Step
