*Heading
** Job name: IrregularShape Model name: IrregularShape
** Generated by: Abaqus/CAE 2022
*Preprint, echo=NO, model=NO, history=NO, contact=NO
**
** PARTS
**
*Part, name=Part-1
*Node
      1, -0.0145269996, -0.0168999992, 0.0500000007
      2, -0.0295269992, -0.00190000003, 0.0500000007
      3, -0.0319786482, -0.0168999992, 0.0500000007
      4, -0.0145269996, -0.0168999992,           0.
      5, -0.0295269992, -0.00190000003,           0.
      6, -0.0319786482, -0.0168999992,           0.
      7, 0.0195107069, 0.0415076949, 0.0500000007
      8, 0.0425000004, 0.00249999994, 0.0500000007
      9, 0.0425000004, 0.00249999994, 7.45058071e-10
     10, 0.0195107069, 0.0415076949, 7.45058071e-10
     11, -0.0107393386,  0.092835255, 0.0500000007
     12, 0.0086336229, 0.0599636734, 0.0500000007
     13, 0.0086336229, 0.0599636734, 7.45058071e-10
     14, -0.0107393386,  0.092835255, 7.45058071e-10
     15, -0.0019739999, -0.0618360005, 0.0500000007
     16, 0.0618522279, -0.0303364061, 0.0500000007
     17, 0.00499999989, 0.0462500006, 0.0500000007
     18, -0.0299999993,  0.081249997, 0.0500000007
     19, 0.0618522279, -0.0303364061, 7.45058071e-10
     20, -0.0299999993,  0.081249997, 7.45058071e-10
** ... 436 like lines cut
*Element, type=C3D8R
1, 115,  25, 114, 356,  23,   1,  24, 113
2, 114,  27, 116, 356,  24,   2,  26, 113
3, 116,  28, 115, 356,  26,   3,  23, 113
4, 115,  30, 117, 356,  25,   4,  29, 114
5, 117,  31, 116, 356,  29,   5,  27, 114
6, 115,  28, 116, 356,  30,   6,  31, 117
 7, 119,  32,   7,  35, 358, 125,  36, 122
 8, 119, 118,  33,  32, 358, 357, 124, 125
 9, 118,  34,   8,  33, 357, 123,  37, 124
10, 118, 119,  35,  34, 357, 358, 122, 123
11, 358, 125,  36, 122, 121,  39,  10,  40
12, 358, 357, 124, 125, 121, 120,  38,  39
13, 357, 123,  37, 124, 120,  41,   9,  38
14, 357, 358, 122, 123, 120, 121,  40,  41
15, 127,  44,  43, 126, 360, 135, 136, 359
16,  42,  11,  47, 126, 137,  48, 132, 359
17,  44, 127, 128,  45, 135, 360, 361, 134
18, 128, 127, 126,  47, 361, 360, 359, 132
19, 126,  43,  12,  42, 359, 136,  49, 137
20,  47,  46,  45, 128, 132, 133, 134, 361
** ... 250 like lines cut
*Nset, nset=Set-1, generate
   1,  456,    1
*Elset, elset=Set-1, generate
   1,  270,    1
** Section: Section-1
*Solid Section, elset=Set-1, material=NeoHooke
,
*End Part
**  
**
** ASSEMBLY
**
*Assembly, name=Assembly
**  
*Instance, name=Part-1-1, part=Part-1
*End Instance
**  
*Nset, nset=Disp, instance=Part-1-1
   1,   2,   3,   7,   8,  11,  12,  15,  16,  17,  18,  23,  24,  26,  32,  33
  34,  35,  42,  43,  44,  45,  46,  47,  56,  57,  58,  59,  60,  61,  62,  63
  64,  65,  66,  67,  68,  69,  70,  71,  72,  73,  74,  97,  98,  99, 100, 101
 102, 103, 104, 113, 118, 119, 126, 127, 128, 138, 139, 140, 141, 142, 143, 144
 145, 146, 147, 148, 149, 150, 151, 152, 153, 154, 155, 156, 157, 158, 159, 160
 161, 162, 163, 164, 165, 166, 167, 168, 169, 170, 171, 172, 173, 174, 175, 176
 177, 178, 179, 180, 181, 182, 183, 184, 185, 186, 187, 188, 189, 190, 191, 192
 193, 194, 195, 196, 197, 198, 199, 200, 201, 202, 203, 204, 205, 206, 207, 208
 209, 210, 211, 212, 213, 214, 215, 216, 217, 218, 219, 220, 221, 222, 223, 224
 332, 333, 334, 335, 336, 337, 338, 355
*Elset, elset=Disp, instance=Part-1-1
   1,   2,   3,   7,   8,   9,  10,  15,  16,  17,  18,  19,  20,  27,  28,  29
  30,  31,  32,  33,  34,  35,  36,  37,  38,  39,  40,  41,  42,  43,  44,  45
  46,  47,  48,  49,  50,  51,  52,  53,  54,  55,  56,  57,  58,  59,  60,  61
  62,  63,  64,  65,  66,  67,  68,  69,  70,  71,  72,  73,  74,  75,  76,  77
  78,  79,  80,  81,  82,  83,  84,  85,  86,  87,  88,  89,  90,  91,  92,  93
  94,  95,  96,  97,  98,  99, 100, 101, 102, 103, 104, 105, 106, 107, 108, 109
 110, 111, 112, 113, 114, 115, 116, 117, 118, 119, 120, 121, 122, 123, 124, 125
 126, 127, 128, 129, 130, 131, 132, 239, 240, 241, 242, 243, 244, 245, 246, 247
 248, 249, 250, 267, 268, 269, 270
*Nset, nset=Fix, instance=Part-1-1
   4,   5,   6,   9,  10,  13,  14,  19,  20,  21,  22,  29,  30,  31,  38,  39
  50,  78,  79,  80,  81,  82,  83,  84,  85,  86,  87,  88,  89,  90,  91,  92
  93,  94,  95,  96, 225, 226, 227, 228, 229, 230, 231, 232, 233, 234, 235, 236
 237, 238, 239, 240, 241, 242, 243, 244, 245, 246, 247, 248, 249, 250, 251, 252
 253, 254, 255, 256, 257, 258, 259, 260, 261, 262, 263, 264, 265, 266, 267, 268
 269, 270, 271, 272, 273, 274, 275, 276, 277, 278, 279, 280, 281, 282, 283, 284
 285, 286, 287, 288, 289, 290, 291, 292, 293, 294, 295, 296, 297, 298, 299, 300
 301, 302, 303, 304, 305, 306, 307, 308, 309, 310, 311
*Elset, elset=Fix, instance=Part-1-1, generate
 133,  238,    1
*Nset, nset=HOST, instance=Part-1-1
   1,   2,   3,   4,   5,   6,   7,   8,   9,  10,  11,  12,  13,  14,  15,  16
  17,  18,  19,  20,  21,  22,  23,  24,  25,  26,  27,  28,  29,  30,  31,  32
  33,  36,  37,  38,  39,  42,  48,  49,  50,  56,  57,  58,  59,  60,  61,  62
  63,  64,  65,  66,  67,  68,  69,  70,  71,  72,  73,  74,  75,  76,  77,  78
  79,  80,  81,  82,  83,  84,  85,  86,  87,  88,  89,  90,  91,  92,  93,  94
  95,  96,  97,  98,  99, 100, 101, 102, 103, 104, 105, 106, 107, 108, 109, 110
 111, 112, 113, 114, 115, 116, 117, 124, 125, 137, 138, 139, 140, 141, 142, 143
 144, 145, 146, 147, 148, 149, 150, 151, 152, 153, 154, 155, 156, 157, 158, 159
 160, 161, 162, 163, 164, 165, 166, 167, 168, 169, 170, 171, 172, 173, 174, 175
 176, 177, 178, 179, 180, 181, 182, 183, 184, 185, 186, 187, 188, 189, 190, 191
 192, 193, 194, 195, 196, 197, 198, 199, 200, 201, 202, 203, 204, 205, 206, 207
 208, 209, 210, 211, 212, 213, 214, 215, 216, 217, 218, 219, 220, 221, 222, 223
 224, 225, 226, 227, 228, 229, 230, 231, 232, 233, 234, 235, 236, 237, 238, 239
 240, 241, 242, 243, 244, 245, 246, 247, 248, 249, 250, 251, 252, 253, 254, 255
 256, 257, 258, 259, 260, 261, 262, 263, 264, 265, 266, 267, 268, 269, 270, 271
 272, 273, 274, 275, 276, 277, 278, 279, 280, 281, 282, 283, 284, 285, 286, 287
 288, 289, 290, 291, 292, 293, 294, 295, 296, 297, 298, 299, 300, 301, 302, 303
 304, 305, 306, 307, 308, 309, 310, 311, 312, 313, 314, 315, 316, 317, 318, 319
 320, 321, 322, 323, 324, 325, 326, 327, 328, 329, 330, 331, 332, 333, 334, 335
 336, 337, 338, 339, 340, 341, 342, 343, 344, 345, 346, 347, 348, 349, 350, 351
** ... 7 like lines cut
*Elset, elset=HOST, instance=Part-1-1
   1,   2,   3,   4,   5,   6,  27,  28,  29,  30,  31,  32,  33,  34,  35,  36
  37,  38,  39,  40,  41,  42,  43,  44,  45,  46,  47,  48,  49,  50,  51,  52
  53,  54,  55,  56,  57,  58,  59,  60,  61,  62,  63,  64,  65,  66,  67,  68
  69,  70,  71,  72,  73,  74,  75,  76,  77,  78,  79,  80,  81,  82,  83,  84
  85,  86,  87,  88,  89,  90,  91,  92,  93,  94,  95,  96,  97,  98,  99, 100
 101, 102, 103, 104, 105, 106, 107, 108, 109, 110, 111, 112, 113, 114, 115, 116
 117, 118, 119, 120, 121, 122, 123, 124, 125, 126, 127, 128, 129, 130, 131, 132
 133, 134, 135, 136, 137, 138, 139, 140, 141, 142, 143, 144, 145, 146, 147, 148
 149, 150, 151, 152, 153, 154, 155, 156, 157, 158, 159, 160, 161, 162, 163, 164
 165, 166, 167, 168, 169, 170, 171, 172, 173, 174, 175, 176, 177, 178, 179, 180
 181, 182, 183, 184, 185, 186, 187, 188, 189, 190, 191, 192, 193, 194, 195, 196
 197, 198, 199, 200, 201, 202, 203, 204, 205, 206, 207, 208, 209, 210, 211, 212
 213, 214, 215, 216, 217, 218, 219, 220, 221, 222, 223, 224, 225, 226, 227, 228
 229, 230, 231, 232, 233, 234, 235, 236, 237, 238, 239, 240, 241, 242, 243, 244
 245, 246, 247, 248, 249, 250, 251, 252, 253, 254, 255, 256, 257, 258, 259, 260
 261, 262
*Nset, nset=O1, instance=Part-1-1
   1,   2,   3,   4,   5,   6,   7,   8,   9,  10,  11,  12,  13,  14,  15,  16
  17,  18,  19,  20,  21,  22,  23,  24,  26,  29,  30,  31,  32,  33,  34,  35
  36,  37,  38,  39,  40,  41,  42,  43,  44,  45,  46,  47,  48,  49,  50,  51
  52,  53,  54,  55,  56,  57,  58,  59,  60,  61,  62,  63,  64,  65,  66,  67
  68,  69,  70,  71,  72,  73,  74,  75,  76,  77,  78,  79,  80,  81,  82,  83
  84,  85,  86,  87,  88,  89,  90,  91,  92,  93,  94,  95,  96,  97,  98,  99
 100, 101, 102, 103, 104, 105, 106, 107, 108, 109, 110, 111, 112, 113, 117, 118
 119, 120, 121, 122, 123, 126, 127, 128, 129, 130, 131, 132, 133, 134, 135, 136
 138, 139, 140, 141, 142, 143, 144, 145, 146, 147, 148, 149, 150, 151, 152, 153
 154, 155, 156, 157, 158, 159, 160, 161, 162, 163, 164, 165, 166, 167, 168, 169
 170, 171, 172, 173, 174, 175, 176, 177, 178, 179, 180, 181, 182, 183, 184, 185
 186, 187, 188, 189, 190, 191, 192, 193, 194, 195, 196, 197, 198, 199, 200, 201
 202, 203, 204, 205, 206, 207, 208, 209, 210, 211, 212, 213, 214, 215, 216, 217
 218, 219, 220, 221, 222, 223, 224, 225, 226, 227, 228, 229, 230, 231, 232, 233
 234, 235, 236, 237, 238, 239, 240, 241, 242, 243, 244, 245, 246, 247, 248, 249
 250, 251, 252, 253, 254, 255, 256, 257, 258, 259, 260, 261, 262, 263, 264, 265
 266, 267, 268, 269, 270, 271, 272, 273, 274, 275, 276, 277, 278, 279, 280, 281
 282, 283, 284, 285, 286, 287, 288, 289, 290, 291, 292, 293, 294, 295, 296, 297
 298, 299, 300, 301, 302, 303, 304, 305, 306, 307, 308, 309, 310, 311, 322, 323
 324, 325, 326, 327, 328, 329, 330, 331, 332, 333, 334, 335, 336, 337, 338, 339
 340, 341, 342, 343, 344, 345, 346, 347, 348, 349, 350, 351, 352, 353, 354, 355
*Elset, elset=O1, instance=Part-1-1, generate
   1,  270,    1
*Nset, nset=O2, instance=Part-1-1
   1,   2,   3,   4,   5,   6,   7,   8,   9,  10,  11,  12,  13,  14,  16,  19
  23,  24,  25,  26,  27,  28,  29,  30,  31,  32,  33,  36,  37,  38,  39,  42
  48,  49,  50,  63,  64,  75,  78,  79, 114, 115, 116, 124, 125, 137, 320, 321
*Elset, elset=O2, instance=Part-1-1
   1,   2,   3,   4,   5,   6,   7,   8,   9,  11,  12,  13,  16,  19,  22,  25
  30,  31,  33,  34,  39,  45,  48,  49,  50,  55,  69,  71,  76,  77, 136, 137
 139, 140, 145, 151, 154, 155, 156, 161, 175, 177, 182, 183, 239, 246, 249, 251
 258, 261
*Nset, nset=O3, instance=Part-1-1
   1,   2,   3,   4,   5,   6,   7,   8,   9,  10,  11,  12,  13,  14,  15,  16
  17,  18,  19,  20,  21,  22,  23,  24,  26,  29,  30,  31,  32,  33,  34,  35
  36,  37,  38,  39,  40,  41,  42,  43,  44,  45,  46,  47,  48,  49,  50,  51
  52,  53,  54,  55,  56,  57,  58,  59,  60,  61,  62,  63,  64,  65,  66,  67
  68,  69,  70,  71,  72,  73,  74,  75,  76,  77,  78,  79,  80,  81,  82,  83
  84,  85,  86,  87,  88,  89,  90,  91,  92,  93,  94,  95,  96,  97,  98,  99
 100, 101, 102, 103, 104, 105, 106, 107, 108, 109, 110, 111, 112, 113, 117, 118
 119, 120, 121, 122, 123, 126, 127, 128, 129, 130, 131, 132, 133, 134, 135, 136
 138, 139, 140, 141, 142, 143, 144, 145, 146, 147, 148, 149, 150, 151, 152, 153
 154, 155, 156, 157, 158, 159, 160, 161, 162, 163, 164, 165, 166, 167, 168, 169
 170, 171, 172, 173, 174, 175, 176, 177, 178, 179, 180, 181, 182, 183, 184, 185
 186, 187, 188, 189, 190, 191, 192, 193, 194, 195, 196, 197, 198, 199, 200, 201
 202, 203, 204, 205, 206, 207, 208, 209, 210, 211, 212, 213, 214, 215, 216, 217
 218, 219, 220, 221, 222, 223, 224, 225, 226, 227, 228, 229, 230, 231, 232, 233
 234, 235, 236, 237, 238, 239, 240, 241, 242, 243, 244, 245, 246, 247, 248, 249
 250, 251, 252, 253, 254, 255, 256, 257, 258, 259, 260, 261, 262, 263, 264, 265
 266, 267, 268, 269, 270, 271, 272, 273, 274, 275, 276, 277, 278, 279, 280, 281
 282, 283, 284, 285, 286, 287, 288, 289, 290, 291, 292, 293, 294, 295, 296, 297
 298, 299, 300, 301, 302, 303, 304, 305, 306, 307, 308, 309, 310, 311, 322, 323
 324, 325, 326, 327, 328, 329, 330, 331, 332, 333, 334, 335, 336, 337, 338, 339
 340, 341, 342, 343, 344, 345, 346, 347, 348, 349, 350, 351, 352, 353, 354, 355
*Elset, elset=O3, instance=Part-1-1, generate
   1,  270,    1
*Nset, nset=Outside, instance=Part-1-1
   1,   2,   3,   4,   5,   6,   7,   8,   9,  10,  11,  12,  13,  14,  15,  16
  17,  18,  19,  20,  21,  22,  23,  24,  25,  26,  27,  28,  29,  30,  31,  32
  33,  34,  35,  36,  37,  38,  39,  40,  41,  42,  43,  44,  45,  46,  47,  48
  49,  50,  51,  52,  53,  54,  55,  56,  57,  58,  59,  60,  61,  62,  63,  64
  65,  66,  67,  68,  69,  70,  71,  72,  73,  74,  75,  76,  77,  78,  79,  80
  81,  82,  83,  84,  85,  86,  87,  88,  89,  90,  91,  92,  93,  94,  95,  96
  97,  98,  99, 100, 101, 102, 103, 104, 105, 106, 107, 108, 109, 110, 111, 112
 113, 114, 115, 116, 117, 118, 119, 120, 121, 122, 123, 124, 125, 126, 127, 128
 129, 130, 131, 132, 133, 134, 135, 136, 137, 138, 139, 140, 141, 142, 143, 144
 145, 146, 147, 148, 149, 150, 151, 152, 153, 154, 155, 156, 157, 158, 159, 160
 161, 162, 163, 164, 165, 166, 167, 168, 169, 170, 171, 172, 173, 174, 175, 176
 177, 178, 179, 180, 181, 182, 183, 184, 185, 186, 187, 188, 189, 190, 191, 192
 193, 194, 195, 196, 197, 198, 199, 200, 201, 202, 203, 204, 205, 206, 207, 208
 209, 210, 211, 212, 213, 214, 215, 216, 217, 218, 219, 220, 221, 222, 223, 224
 225, 226, 227, 228, 229, 230, 231, 232, 233, 234, 235, 236, 237, 238, 239, 240
 241, 242, 243, 244, 245, 246, 247, 248, 249, 250, 251, 252, 253, 254, 255, 256
 257, 258, 259, 260, 261, 262, 263, 264, 265, 266, 267, 268, 269, 270, 271, 272
 273, 274, 275, 276, 277, 278, 279, 280, 281, 282, 283, 284, 285, 286, 287, 288
 289, 290, 291, 292, 293, 294, 295, 296, 297, 298, 299, 300, 301, 302, 303, 304
 305, 306, 307, 308, 309, 310, 311, 320, 321, 322, 323, 324, 325, 326, 327, 328
 329, 330, 331, 332, 333, 334, 335, 336, 337, 338, 339, 340, 341, 342, 343, 344
 345, 346, 347, 348, 349, 350, 351, 352, 353, 354, 355
*Elset, elset=Outside, instance=Part-1-1, generate
   1,  270,    1
*End Assembly
*Amplitude, name=Amp-1
             0.,              0.,           0.001,              1.
** 
** MATERIALS
** 
*Material, name=FIBERS
*Density
981.,
*Elastic
 2e+08, 0.3
*No Compression
*Material, name=MATRIX
*Density
308.,
*Elastic, type=ORTHOTROPIC
 4.2e+10, 2.4e+09, 4.2e+10, 2.7e+09, 2.7e+09, 4.6e+09,   4e+08,   4e+08
   9e+08,
*Material, name=NeoHooke
*Density
7800.,
*Hyperelastic, neo hooke
 3.846e+10, 1.1999e-11
** 
** BOUNDARY CONDITIONS
** 
** Name: Fix Type: Displacement/Rotation
*Boundary
Fix, 3, 3
** ----------------------------------------------------------------
** 
** STEP: Step-1
** 
*Step, name=Step-1, nlgeom=YES
*Dynamic, Explicit
, 0.001
*Bulk Viscosity
0.06, 1.2
** 
** BOUNDARY CONDITIONS
** 
** Name: Disp Type: Displacement/Rotation
*Boundary, amplitude=Amp-1
Disp, 3, 3, 0.0001
** 
** OUTPUT REQUESTS
** 
*Restart, write, number interval=1, time marks=NO
** 
** FIELD OUTPUT: F-Output-1
** 
*Output, field, variable=PRESELECT
** 
** HISTORY OUTPUT: H-Output-1
** 
*Output, history, variable=PRESELECT
*End Step
