*Heading
** Job name: LiuBeam-6 Model name: Beam-6
** Generated by: Abaqus/CAE 2021
*Preprint, echo=NO, model=NO, history=NO, contact=NO
**
** PARTS
**
*Part, name=Beam
*Node
      1,  0.109999999,           0.,           0.
      2,  0.109999999,           0., 0.0199999996
      3, 0.00999999978,           0., 0.0199999996
      4, 0.00999999978,           0.,           0.
      5,  0.109999999, 0.00600000005, 0.0199999996
      6, 0.00999999978, 0.00600000005, 0.0199999996
      7, 0.00999999978, 0.00600000005,           0.
      8,  0.109999999, 0.00600000005,           0.
      9,           0.,           0., 0.0199999996
     10,           0.,           0.,           0.
     11,           0., 0.00600000005, 0.0199999996
     12,           0., 0.00600000005,           0.
     13,  0.119999997, 0.00600000005, 0.0199999996
     14,  0.119999997,           0., 0.0199999996
     15,  0.119999997,           0.,           0.
     16,  0.119999997, 0.00600000005,           0.
     17,  0.109999999,           0., 0.00499999989
     18,  0.109999999,           0., 0.00999999978
     19,  0.109999999,           0., 0.0149999997
     20,  0.108214289,           0., 0.0199999996
** ... 3555 like lines cut
*Element, type=C3D8
   1,  266, 1677, 1929,  687,    1,   17,  357,  132
   2, 1677, 1678, 1930, 1929,   17,   18,  358,  357
   3, 1678, 1679, 1931, 1930,   18,   19,  359,  358
   4, 1679,  276, 1182, 1931,   19,    2,   20,  359
   5,  687, 1929, 1932,  688,  132,  357,  360,  131
   6, 1929, 1930, 1933, 1932,  357,  358,  361,  360
   7, 1930, 1931, 1934, 1933,  358,  359,  362,  361
   8, 1931, 1182, 1183, 1934,  359,   20,   21,  362
   9,  688, 1932, 1935,  689,  131,  360,  363,  130
  10, 1932, 1933, 1936, 1935,  360,  361,  364,  363
  11, 1933, 1934, 1937, 1936,  361,  362,  365,  364
  12, 1934, 1183, 1184, 1937,  362,   21,   22,  365
  13,  689, 1935, 1938,  690,  130,  363,  366,  129
  14, 1935, 1936, 1939, 1938,  363,  364,  367,  366
  15, 1936, 1937, 1940, 1939,  364,  365,  368,  367
  16, 1937, 1184, 1185, 1940,  365,   22,   23,  368
  17,  690, 1938, 1941,  691,  129,  366,  369,  128
  18, 1938, 1939, 1942, 1941,  366,  367,  370,  369
  19, 1939, 1940, 1943, 1942,  367,  368,  371,  370
  20, 1940, 1185, 1186, 1943,  368,   23,   24,  371
** ... 2540 like lines cut
*Nset, nset=Set-1, generate
    1,  3575,     1
*Elset, elset=Set-1, generate
    1,  2560,     1
** Section: NeoHooke
*Solid Section, elset=Set-1, material=Elastic
,
*End Part
**  
**
** ASSEMBLY
**
*Assembly, name=Assembly
**  
*Instance, name=Beam-1, part=Beam
          0.,           0.,        0.006
          0.,           0.,        0.006,          -1.,           0.,        0.006,          90.
*End Instance
**  
*Nset, nset=Clamp, instance=Beam-1
    3,    4,    6,    7,    9,   10,   11,   12,   75,   76,   77,  191,  192,  193,  249,  250
  251,  252,  253,  254,  255,  256,  257,  267,  268,  269,  270,  271,  272,  273,  274,  275
  285,  286,  287,  288,  289,  290,  291,  292,  293,  294,  295,  296,  297,  298,  299,  300
  301,  302,  303,  304,  305,  306,  307,  308,  309,  310,  311,  312,  313,  314,  315,  316
  317,  318,  319,  320,  321,  322,  323,  324,  325,  326,  327,  328, 1704, 1705, 1706, 1707
 1708, 1709, 1710, 1711, 1712, 1713, 1714, 1715, 1716, 1717, 1718, 1719, 1720, 1721, 1722, 1723
 1724, 1725, 1726, 1727, 1728, 1729, 1730, 1731, 1732, 1733, 1734, 1735, 1736, 1737, 1738, 1739
 1740, 1741, 1742, 1743, 1744, 1745, 1746, 1747, 1748, 1749, 1750, 1751, 1752, 1753, 1754, 1755
 1756, 1757, 1758, 1759, 1760, 1761, 1762, 1763, 1764, 1765, 1766, 1767, 1768, 1769, 1770, 1771
 1772, 1773, 1774, 1775, 1776, 1777, 1778, 1779, 1780, 1781, 1782, 1783, 1784, 1785, 1786, 1787
 1788, 1789, 1790, 1791, 1792, 1793, 1794, 1795, 1796, 1797, 1798, 1799, 1800, 1801, 1802, 1803
 1804, 1805, 1806, 1807, 1808, 1809, 1810, 1811, 1812, 1813, 1814, 1815, 1816, 1817, 1818, 1819
 1820, 1821, 1822, 1823, 1824, 1825, 1826, 1827, 1828, 1829, 1830, 1831, 1832, 1833, 1834, 1835
 1836, 1837, 1838, 1839, 1840, 1841, 1842, 1843, 1844, 1845, 1846, 1847, 1848, 1849, 1850, 1851
 1852, 1853, 1854, 1855, 1856, 1857, 1858, 1859, 1860, 1861, 1862, 1863, 1864, 1865, 1866, 1867
 1868, 1869, 1870, 1871, 1872, 1873, 1874, 1875, 1876, 1877, 3414, 3415, 3416, 3417, 3418, 3419
 3420, 3421, 3422, 3423, 3424, 3425, 3426, 3427, 3428, 3429, 3430, 3431, 3432, 3433, 3434, 3435
 3436, 3437, 3438, 3439, 3440, 3441, 3442, 3443, 3444, 3445, 3446, 3447, 3448, 3449, 3450, 3451
 3452, 3453, 3454, 3455, 3456, 3457, 3458, 3459, 3460, 3461, 3462, 3463, 3464, 3465, 3466, 3467
 3468, 3469, 3470, 3471, 3472, 3473, 3474, 3475, 3476, 3477, 3478, 3479, 3480, 3481, 3482, 3483
** ... 5 like lines cut
*Elset, elset=Clamp, instance=Beam-1, generate
 2241,  2480,     1
*Nset, nset=Disp, instance=Beam-1
  1,  2, 17, 18, 19
*Elset, elset=Disp, instance=Beam-1
    1,    2,    3,    4, 2530, 2540, 2550, 2560
*Nset, nset=HOST, instance=Beam-1, generate
    1,  3575,     1
*Elset, elset=HOST, instance=Beam-1, generate
    1,  2560,     1
*Nset, nset=Outside, instance=Beam-1
    1,    2,    3,    4,    5,    6,    7,    8,    9,   10,   11,   12,   13,   14,   15,   16
   17,   18,   19,   20,   21,   22,   23,   24,   25,   26,   27,   28,   29,   30,   31,   32
   33,   34,   35,   36,   37,   38,   39,   40,   41,   42,   43,   44,   45,   46,   47,   48
   49,   50,   51,   52,   53,   54,   55,   56,   57,   58,   59,   60,   61,   62,   63,   64
   65,   66,   67,   68,   69,   70,   71,   72,   73,   74,   75,   76,   77,   78,   79,   80
   81,   82,   83,   84,   85,   86,   87,   88,   89,   90,   91,   92,   93,   94,   95,   96
   97,   98,   99,  100,  101,  102,  103,  104,  105,  106,  107,  108,  109,  110,  111,  112
  113,  114,  115,  116,  117,  118,  119,  120,  121,  122,  123,  124,  125,  126,  127,  128
  129,  130,  131,  132,  133,  134,  135,  136,  137,  138,  139,  140,  141,  142,  143,  144
  145,  146,  147,  148,  149,  150,  151,  152,  153,  154,  155,  156,  157,  158,  159,  160
  161,  162,  163,  164,  165,  166,  167,  168,  169,  170,  171,  172,  173,  174,  175,  176
  177,  178,  179,  180,  181,  182,  183,  184,  185,  186,  187,  188,  189,  190,  191,  192
  193,  194,  195,  196,  197,  198,  199,  200,  201,  202,  203,  204,  205,  206,  207,  208
  209,  210,  211,  212,  213,  214,  215,  216,  217,  218,  219,  220,  221,  222,  223,  224
  225,  226,  227,  228,  229,  230,  231,  232,  233,  234,  235,  236,  237,  238,  239,  240
  241,  242,  243,  244,  245,  246,  247,  248,  249,  250,  251,  252,  253,  254,  255,  256
  257,  258,  259,  260,  261,  262,  263,  264,  265,  266,  267,  268,  269,  270,  271,  272
  273,  274,  275,  276,  277,  278,  279,  280,  281,  282,  283,  284,  285,  286,  287,  288
  289,  290,  291,  292,  293,  294,  295,  296,  297,  298,  299,  300,  301,  302,  303,  304
  305,  306,  307,  308,  309,  310,  311,  312,  313,  314,  315,  316,  317,  318,  319,  320
** ... 98 like lines cut
*Elset, elset=Outside, instance=Beam-1
    1,    2,    3,    4,    5,    6,    7,    8,    9,   10,   11,   12,   13,   14,   15,   16
   17,   18,   19,   20,   21,   22,   23,   24,   25,   26,   27,   28,   29,   30,   31,   32
   33,   34,   35,   36,   37,   38,   39,   40,   41,   42,   43,   44,   45,   46,   47,   48
   49,   50,   51,   52,   53,   54,   55,   56,   57,   58,   59,   60,   61,   62,   63,   64
   65,   66,   67,   68,   69,   70,   71,   72,   73,   74,   75,   76,   77,   78,   79,   80
   81,   82,   83,   84,   85,   86,   87,   88,   89,   90,   91,   92,   93,   94,   95,   96
   97,   98,   99,  100,  101,  102,  103,  104,  105,  106,  107,  108,  109,  110,  111,  112
  113,  114,  115,  116,  117,  118,  119,  120,  121,  122,  123,  124,  125,  126,  127,  128
  129,  130,  131,  132,  133,  134,  135,  136,  137,  138,  139,  140,  141,  142,  143,  144
  145,  146,  147,  148,  149,  150,  151,  152,  153,  154,  155,  156,  157,  158,  159,  160
  161,  162,  163,  164,  165,  166,  167,  168,  169,  170,  171,  172,  173,  174,  175,  176
  177,  178,  179,  180,  181,  182,  183,  184,  185,  186,  187,  188,  189,  190,  191,  192
  193,  194,  195,  196,  197,  198,  199,  200,  201,  202,  203,  204,  205,  206,  207,  208
  209,  210,  211,  212,  213,  214,  215,  216,  217,  218,  219,  220,  221,  222,  223,  224
  225,  228,  229,  232,  233,  236,  237,  240,  241,  244,  245,  248,  249,  252,  253,  256
  257,  260,  261,  264,  265,  268,  269,  272,  273,  276,  277,  280,  281,  284,  285,  288
  289,  292,  293,  296,  297,  300,  301,  304,  305,  308,  309,  312,  313,  316,  317,  320
  321,  324,  325,  328,  329,  332,  333,  336,  337,  340,  341,  344,  345,  348,  349,  352
  353,  356,  357,  360,  361,  364,  365,  368,  369,  372,  373,  376,  377,  380,  381,  384
  385,  388,  389,  392,  393,  396,  397,  400,  401,  404,  405,  408,  409,  412,  413,  416
** ... 78 like lines cut
*Nset, nset=Set-6, instance=Beam-1
 1, 2
*End Assembly
*Amplitude, name=Ramp
             0.,              0.,            0.25,              1.
** 
** MATERIALS
** 
*Material, name=Elastic
*Density
 7.8e+07,
*Elastic
 2e+11, 0.3
*Material, name=Fibers
*Density
981.,
*Elastic
 1.3e+11, 0.49
*Material, name=Matrix-NeoHooke
*Density
1100.,
*Hyperelastic, neo hooke
 2.1154e+08, 2.182e-09
*Material, name=NeoHooke
*Density
 7.8e+07,
*Hyperelastic, neo hooke
 3.846e+10, 1.1999e-11
** 
** BOUNDARY CONDITIONS
** 
** Name: Clamp Type: Displacement/Rotation
*Boundary
Clamp, 1, 1
Clamp, 2, 2
Clamp, 3, 3
** ----------------------------------------------------------------
** 
** STEP: Step-1
** 
*Step, name=Step-1, nlgeom=YES
*Dynamic, Explicit
, 0.25
*Bulk Viscosity
0.06, 1.2
** 
** BOUNDARY CONDITIONS
** 
** Name: Disp Type: Displacement/Rotation
*Boundary, amplitude=Ramp
Disp, 3, 3, -0.0025
** 
** OUTPUT REQUESTS
** 
*Restart, write, number interval=1, time marks=NO
** 
** FIELD OUTPUT: F-Output-1
** 
*Output, field, number interval=100
*Node Output
A, RF, U, V
*Element Output, directions=YES
ER, EVF, LE, PE, PEEQ, PEEQVAVG, PEVAVG, S, SVAVG
*Contact Output
CSTRESS, 
** 
** HISTORY OUTPUT: H-Output-1
** 
*Output, history, variable=PRESELECT, time interval=0.0025
*End Step
