*Heading
** Job name: RussellTensile-Half Model name: RussellTensile-1-5_Half
** Generated by: Abaqus/CAE 2021
*Preprint, echo=NO, model=NO, history=NO, contact=NO
**
** PARTS
**
*Part, name=Gauge
*Node
      1, -0.0250000004, -0.00200000009, 0.00600000005
      2, -0.0250000004, -0.00100000005, 0.00600000005
      3, -0.0250000004,           0., 0.00600000005
      4, -0.0250000004, 0.00100000005, 0.00600000005
      5, -0.0250000004, 0.00200000009, 0.00600000005
      6, -0.0250000004, -0.00200000009, 0.00480000023
      7, -0.0250000004, -0.00100000005, 0.00480000023
      8, -0.0250000004,           0., 0.00480000023
      9, -0.0250000004, 0.00100000005, 0.00480000023
     10, -0.0250000004, 0.00200000009, 0.00480000023
     11, -0.0250000004, -0.00200000009, 0.00359999994
     12, -0.0250000004, -0.00100000005, 0.00359999994
     13, -0.0250000004,           0., 0.00359999994
     14, -0.0250000004, 0.00100000005, 0.00359999994
     15, -0.0250000004, 0.00200000009, 0.00359999994
     16, -0.0250000004, -0.00200000009, 0.00240000011
     17, -0.0250000004, -0.00100000005, 0.00240000011
     18, -0.0250000004,           0., 0.00240000011
     19, -0.0250000004, 0.00100000005, 0.00240000011
     20, -0.0250000004, 0.00200000009, 0.00240000011
** ... 640 like lines cut
*Element, type=C3D8R
  1,  31,  32,  37,  36,   1,   2,   7,   6
  2,  32,  33,  38,  37,   2,   3,   8,   7
  3,  33,  34,  39,  38,   3,   4,   9,   8
  4,  34,  35,  40,  39,   4,   5,  10,   9
  5,  36,  37,  42,  41,   6,   7,  12,  11
  6,  37,  38,  43,  42,   7,   8,  13,  12
  7,  38,  39,  44,  43,   8,   9,  14,  13
  8,  39,  40,  45,  44,   9,  10,  15,  14
  9,  41,  42,  47,  46,  11,  12,  17,  16
 10,  42,  43,  48,  47,  12,  13,  18,  17
 11,  43,  44,  49,  48,  13,  14,  19,  18
 12,  44,  45,  50,  49,  14,  15,  20,  19
 13,  46,  47,  52,  51,  16,  17,  22,  21
 14,  47,  48,  53,  52,  17,  18,  23,  22
 15,  48,  49,  54,  53,  18,  19,  24,  23
 16,  49,  50,  55,  54,  19,  20,  25,  24
 17,  51,  52,  57,  56,  21,  22,  27,  26
 18,  52,  53,  58,  57,  22,  23,  28,  27
 19,  53,  54,  59,  58,  23,  24,  29,  28
 20,  54,  55,  60,  59,  24,  25,  30,  29
** ... 400 like lines cut
*Nset, nset=Set-1, generate
   1,  660,    1
*Elset, elset=Set-1, generate
   1,  420,    1
** Section: Gauge
*Solid Section, elset=Set-1, material=Matrix-NeoHooke
,
*End Part
**
*Part, name=Fibers0
*Node
      1,     -0.024679,     -0.002000,      0.000111
      2,     -0.024679,      0.002000,      0.000111
      3,     -0.024236,     -0.002000,      0.000111
      4,     -0.024236,      0.002000,      0.000111
      5,     -0.023793,     -0.002000,      0.000111
      6,     -0.023793,      0.002000,      0.000111
      7,     -0.023349,     -0.002000,      0.000111
      8,     -0.023349,      0.002000,      0.000111
      9,     -0.022906,     -0.002000,      0.000111
      10,     -0.022906,      0.002000,      0.000111
      11,     -0.022462,     -0.002000,      0.000111
      12,     -0.022462,      0.002000,      0.000111
      13,     -0.022019,     -0.002000,      0.000111
      14,     -0.022019,      0.002000,      0.000111
      15,     -0.021575,     -0.002000,      0.000111
      16,     -0.021575,      0.002000,      0.000111
      17,     -0.021132,     -0.002000,      0.000111
      18,     -0.021132,      0.002000,      0.000111
      19,     -0.020688,     -0.002000,      0.000111
      20,     -0.020688,      0.002000,      0.000111
** ... 764 like lines cut
*Element, type=T3D2
1, 1, 2
2, 3, 4
3, 5, 6
4, 7, 8
5, 9, 10
6, 11, 12
7, 13, 14
8, 15, 16
9, 17, 18
10, 19, 20
11, 21, 22
12, 23, 24
13, 25, 26
14, 27, 28
15, 29, 30
16, 31, 32
17, 33, 34
18, 35, 36
19, 37, 38
20, 39, 40
** ... 372 like lines cut
*Nset, nset=Fib0, internal, generate
1, 784, 1
*Elset, elset=Fib0, internal, generate
1, 393, 1
**Section: TrussSection
*Solid Section, elset=Fib0, material=Fibers
1.134900E-07,
*End Part
**
*Part, name=Fibers90
*Node
      1,     -0.025000,     -0.001949,      0.000554
      2,      0.000000,     -0.001949,      0.000554
      3,     -0.025000,     -0.001505,      0.000554
      4,      0.000000,     -0.001505,      0.000554
      5,     -0.025000,     -0.001062,      0.000554
      6,      0.000000,     -0.001062,      0.000554
      7,     -0.025000,     -0.000618,      0.000554
      8,      0.000000,     -0.000618,      0.000554
      9,     -0.025000,     -0.000175,      0.000554
      10,      0.000000,     -0.000175,      0.000554
      11,     -0.025000,      0.000269,      0.000554
      12,      0.000000,      0.000269,      0.000554
      13,     -0.025000,      0.000712,      0.000554
      14,      0.000000,      0.000712,      0.000554
      15,     -0.025000,      0.001156,      0.000554
      16,      0.000000,      0.001156,      0.000554
      17,     -0.025000,      0.001599,      0.000554
      18,      0.000000,      0.001599,      0.000554
      19,     -0.025000,     -0.001949,      0.001441
      20,      0.000000,     -0.001949,      0.001441
** ... 106 like lines cut
*Element, type=T3D2
1, 1, 2
2, 3, 4
3, 5, 6
4, 7, 8
5, 9, 10
6, 11, 12
7, 13, 14
8, 15, 16
9, 17, 18
10, 19, 20
11, 21, 22
12, 23, 24
13, 25, 26
14, 27, 28
15, 29, 30
16, 31, 32
17, 33, 34
18, 35, 36
19, 37, 38
20, 39, 40
** ... 43 like lines cut
*Nset, nset=Fib90, internal, generate
1, 126, 1
*Elset, elset=Fib90, internal, generate
1, 64, 1
**Section: TrussSection
*Solid Section, elset=Fib90, material=Fibers
1.134900E-07,
*End Part
**  
**
** ASSEMBLY
**
*Assembly, name=Assembly
**  
*Instance, name=Gauge-1, part=Gauge
*End Instance
**
*Instance, name=Fibers0, part=Fibers0
0.000000E+00, 0.000000E+00, 0.000000E+00
*End Instance
**
*Instance, name=Fibers90, part=Fibers90
0.000000E+00, 0.000000E+00, 0.000000E+00
*End Instance
**
*Nset, nset=ALLFIBERS, instance=FIBERS0, generate
1, 784, 1
*Nset, nset=ALLFIBERS, instance=FIBERS90, generate
1, 126, 1
*Elset, elset=ALLFIBERS, instance=FIBERS0, generate
1, 393, 1
*Elset, elset=ALLFIBERS, instance=FIBERS90, generate
1, 64, 1
**  
*Nset, nset=Disp, instance=Gauge-1, generate
 631,  660,    1
*Elset, elset=Disp, instance=Gauge-1, generate
 401,  420,    1
*Nset, nset=Fixed, instance=Gauge-1, generate
  1,  30,   1
*Elset, elset=Fixed, instance=Gauge-1, generate
  1,  20,   1
*Nset, nset=HOST, instance=Gauge-1, generate
   1,  660,    1
*Elset, elset=HOST, instance=Gauge-1, generate
   1,  420,    1
*Elset, elset=Output, instance=Gauge-1
 181, 182, 183, 184, 185, 186, 187, 188, 189, 190, 191, 192, 193, 194, 195, 196
 197, 198, 199, 200, 401, 402, 403, 404, 405, 406, 407, 408, 409, 410, 411, 412
 413, 414, 415, 416, 417, 418, 419, 420
*Nset, nset=Outside, instance=Gauge-1
   1,   2,   3,   4,   5,   6,   7,   8,   9,  10,  11,  12,  13,  14,  15,  16
  17,  18,  19,  20,  21,  22,  23,  24,  25,  26,  27,  28,  29,  30,  31,  32
  33,  34,  35,  36,  40,  41,  45,  46,  50,  51,  55,  56,  57,  58,  59,  60
  61,  62,  63,  64,  65,  66,  70,  71,  75,  76,  80,  81,  85,  86,  87,  88
  89,  90,  91,  92,  93,  94,  95,  96, 100, 101, 105, 106, 110, 111, 115, 116
 117, 118, 119, 120, 121, 122, 123, 124, 125, 126, 130, 131, 135, 136, 140, 141
 145, 146, 147, 148, 149, 150, 151, 152, 153, 154, 155, 156, 160, 161, 165, 166
 170, 171, 175, 176, 177, 178, 179, 180, 181, 182, 183, 184, 185, 186, 190, 191
 195, 196, 200, 201, 205, 206, 207, 208, 209, 210, 211, 212, 213, 214, 215, 216
 220, 221, 225, 226, 230, 231, 235, 236, 237, 238, 239, 240, 241, 242, 243, 244
 245, 246, 250, 251, 255, 256, 260, 261, 265, 266, 267, 268, 269, 270, 271, 272
 273, 274, 275, 276, 280, 281, 285, 286, 290, 291, 295, 296, 297, 298, 299, 300
 301, 302, 303, 304, 305, 306, 310, 311, 315, 316, 320, 321, 325, 326, 327, 328
 329, 330, 331, 332, 333, 334, 335, 336, 340, 341, 345, 346, 350, 351, 355, 356
 357, 358, 359, 360, 361, 362, 363, 364, 365, 366, 370, 371, 375, 376, 380, 381
 385, 386, 387, 388, 389, 390, 391, 392, 393, 394, 395, 396, 400, 401, 405, 406
 410, 411, 415, 416, 417, 418, 419, 420, 421, 422, 423, 424, 425, 426, 430, 431
 435, 436, 440, 441, 445, 446, 447, 448, 449, 450, 451, 452, 453, 454, 455, 456
 460, 461, 465, 466, 470, 471, 475, 476, 477, 478, 479, 480, 481, 482, 483, 484
 485, 486, 490, 491, 495, 496, 500, 501, 505, 506, 507, 508, 509, 510, 511, 512
** ... 7 like lines cut
*Elset, elset=Outside, instance=Gauge-1
   1,   2,   3,   4,   5,   6,   7,   8,   9,  10,  11,  12,  13,  14,  15,  16
  17,  18,  19,  20,  21,  22,  23,  24,  25,  28,  29,  32,  33,  36,  37,  38
  39,  40,  41,  42,  43,  44,  45,  48,  49,  52,  53,  56,  57,  58,  59,  60
  61,  62,  63,  64,  65,  68,  69,  72,  73,  76,  77,  78,  79,  80,  81,  82
  83,  84,  85,  88,  89,  92,  93,  96,  97,  98,  99, 100, 101, 102, 103, 104
 105, 108, 109, 112, 113, 116, 117, 118, 119, 120, 121, 122, 123, 124, 125, 128
 129, 132, 133, 136, 137, 138, 139, 140, 141, 142, 143, 144, 145, 148, 149, 152
 153, 156, 157, 158, 159, 160, 161, 162, 163, 164, 165, 168, 169, 172, 173, 176
 177, 178, 179, 180, 181, 182, 183, 184, 185, 188, 189, 192, 193, 196, 197, 198
 199, 200, 201, 202, 203, 204, 205, 208, 209, 212, 213, 216, 217, 218, 219, 220
 221, 222, 223, 224, 225, 228, 229, 232, 233, 236, 237, 238, 239, 240, 241, 242
 243, 244, 245, 248, 249, 252, 253, 256, 257, 258, 259, 260, 261, 262, 263, 264
 265, 268, 269, 272, 273, 276, 277, 278, 279, 280, 281, 282, 283, 284, 285, 288
 289, 292, 293, 296, 297, 298, 299, 300, 301, 302, 303, 304, 305, 308, 309, 312
 313, 316, 317, 318, 319, 320, 321, 322, 323, 324, 325, 328, 329, 332, 333, 336
 337, 338, 339, 340, 341, 342, 343, 344, 345, 348, 349, 352, 353, 356, 357, 358
 359, 360, 361, 362, 363, 364, 365, 368, 369, 372, 373, 376, 377, 378, 379, 380
 381, 382, 383, 384, 385, 388, 389, 392, 393, 396, 397, 398, 399, 400, 401, 402
 403, 404, 405, 406, 407, 408, 409, 410, 411, 412, 413, 414, 415, 416, 417, 418
 419, 420
** Constraint: Embed-1
*Embedded Element, host elset=HOST
ALLFIBERS
*End Assembly
*Amplitude, name=Amp-1
             0.,              0.,             0.1,              1.
** 
** MATERIALS
** 
*Material, name=Fibers
*Density
1100.,
*Hyperelastic, neo hooke
 2.1154e+08, 2.182e-09
*Material, name=Matrix-NeoHooke
*Density
1100.,
*Hyperelastic, neo hooke
 2.1154e+08, 2.182e-09
*Material, name=NeoHooke
*Density
 7.8e+09,
*Hyperelastic, neo hooke
 3.846e+10, 1.1999e-11
** 
** BOUNDARY CONDITIONS
** 
** Name: Fixed Type: Displacement/Rotation
*Boundary
Fixed, 1, 1
** ----------------------------------------------------------------
** 
** STEP: Step-1
** 
*Step, name=Step-1, nlgeom=YES
*Dynamic, Explicit
, 0.1
*Bulk Viscosity
0.06, 1.2
** 
** BOUNDARY CONDITIONS
** 
** Name: Disp Type: Displacement/Rotation
*Boundary, amplitude=Amp-1
Disp, 1, 1, 0.0005
** 
** OUTPUT REQUESTS
** 
*Restart, write, number interval=1, time marks=NO
** 
** FIELD OUTPUT: F-Output-1
** 
*Output, field, number interval=100
*Node Output
A, RF, U, V
*Element Output, directions=YES
ER, EVF, LE, PE, PEEQ, PEEQVAVG, PEVAVG, S, SVAVG
*Contact Output
CSTRESS, 
** 
** HISTORY OUTPUT: H-Output-1
** 
*Output, history, variable=PRESELECT, time interval=0.001
*End Step
