*Heading
** Job name: RussellTensile Model name: RussellTensile
** Generated by: Abaqus/CAE 2021
*Preprint, echo=NO, model=NO, history=NO, contact=NO
**
** PARTS
**
*Part, name=Gauge
*Node
      1, -0.0250000004, -0.00200000009, 0.00600000005
      2, -0.0250000004, 0.00200000009, 0.00600000005
      3, -0.0250000004, -0.00200000009, 0.00300000003
      4, -0.0250000004, 0.00200000009, 0.00300000003
      5, -0.0250000004, -0.00200000009,           0.
      6, -0.0250000004, 0.00200000009,           0.
      7, -0.0211538468, -0.00200000009, 0.00600000005
      8, -0.0211538468, 0.00200000009, 0.00600000005
      9, -0.0211538468, -0.00200000009, 0.00300000003
     10, -0.0211538468, 0.00200000009, 0.00300000003
     11, -0.0211538468, -0.00200000009,           0.
     12, -0.0211538468, 0.00200000009,           0.
     13, -0.0173076931, -0.00200000009, 0.00600000005
     14, -0.0173076931, 0.00200000009, 0.00600000005
     15, -0.0173076931, -0.00200000009, 0.00300000003
     16, -0.0173076931, 0.00200000009, 0.00300000003
     17, -0.0173076931, -0.00200000009,           0.
     18, -0.0173076931, 0.00200000009,           0.
     19, -0.0134615386, -0.00200000009, 0.00600000005
     20, -0.0134615386, 0.00200000009, 0.00600000005
** ... 64 like lines cut
*Element, type=C3D8R
 1,  7,  8, 10,  9,  1,  2,  4,  3
 2,  9, 10, 12, 11,  3,  4,  6,  5
 3, 13, 14, 16, 15,  7,  8, 10,  9
 4, 15, 16, 18, 17,  9, 10, 12, 11
 5, 19, 20, 22, 21, 13, 14, 16, 15
 6, 21, 22, 24, 23, 15, 16, 18, 17
 7, 25, 26, 28, 27, 19, 20, 22, 21
 8, 27, 28, 30, 29, 21, 22, 24, 23
 9, 31, 32, 34, 33, 25, 26, 28, 27
10, 33, 34, 36, 35, 27, 28, 30, 29
11, 37, 38, 40, 39, 31, 32, 34, 33
12, 39, 40, 42, 41, 33, 34, 36, 35
13, 43, 44, 46, 45, 37, 38, 40, 39
14, 45, 46, 48, 47, 39, 40, 42, 41
15, 49, 50, 52, 51, 43, 44, 46, 45
16, 51, 52, 54, 53, 45, 46, 48, 47
17, 55, 56, 58, 57, 49, 50, 52, 51
18, 57, 58, 60, 59, 51, 52, 54, 53
19, 61, 62, 64, 63, 55, 56, 58, 57
20, 63, 64, 66, 65, 57, 58, 60, 59
** ... 6 like lines cut
*Nset, nset=Set-1, generate
  1,  84,   1
*Elset, elset=Set-1, generate
  1,  26,   1
** Section: Gauge
*Solid Section, elset=Set-1, material=NeoHooke
,
*End Part
**  
**
** ASSEMBLY
**
*Assembly, name=Assembly
**  
*Instance, name=Gauge-1, part=Gauge
*End Instance
**  
*Nset, nset=Disp, instance=Gauge-1, generate
 79,  84,   1
*Elset, elset=Disp, instance=Gauge-1
 25, 26
*Nset, nset=Fixed, instance=Gauge-1, generate
 1,  6,  1
*Elset, elset=Fixed, instance=Gauge-1
 1, 2
*End Assembly
*Amplitude, name=Amp-1
             0.,              0.,             0.1,              1.
** 
** MATERIALS
** 
*Material, name=Fibers
*Density
7800.,
*Elastic
 2e+11, 0.3
*Material, name=NeoHooke
*Density
7800.,
*Hyperelastic, neo hooke
 3.846e+10, 1.1999e-11
** 
** BOUNDARY CONDITIONS
** 
** Name: Fixed Type: Displacement/Rotation
*Boundary
Fixed, 1, 1
** ----------------------------------------------------------------
** 
** STEP: Step-1
** 
*Step, name=Step-1, nlgeom=YES
*Dynamic, Explicit
, 0.1
*Bulk Viscosity
0.06, 1.2
** 
** BOUNDARY CONDITIONS
** 
** Name: Disp Type: Displacement/Rotation
*Boundary, amplitude=Amp-1
Disp, 1, 1, 0.001
** 
** OUTPUT REQUESTS
** 
*Restart, write, number interval=1, time marks=NO
** 
** FIELD OUTPUT: F-Output-1
** 
*Output, field, variable=PRESELECT
** 
** HISTORY OUTPUT: H-Output-1
** 
*Output, history, variable=PRESELECT
*End Step
