*Heading
** Job name: RussellTensile-2 Model name: RussellTensile-2
** Generated by: Abaqus/CAE 2021
*Preprint, echo=NO, model=NO, history=NO, contact=NO
**
** PARTS
**
*Part, name=Gauge
*Node
      1, -0.0250000004, -0.00200000009, 0.00600000005
      2, -0.0250000004, -0.00100000005, 0.00600000005
      3, -0.0250000004,           0., 0.00600000005
      4, -0.0250000004, 0.00100000005, 0.00600000005
      5, -0.0250000004, 0.00200000009, 0.00600000005
      6, -0.0250000004, -0.00200000009, 0.00499999989
      7, -0.0250000004, -0.00100000005, 0.00499999989
      8, -0.0250000004,           0., 0.00499999989
      9, -0.0250000004, 0.00100000005, 0.00499999989
     10, -0.0250000004, 0.00200000009, 0.00499999989
     11, -0.0250000004, -0.00200000009, 0.00400000019
     12, -0.0250000004, -0.00100000005, 0.00400000019
     13, -0.0250000004,           0., 0.00400000019
     14, -0.0250000004, 0.00100000005, 0.00400000019
     15, -0.0250000004, 0.00200000009, 0.00400000019
     16, -0.0250000004, -0.00200000009, 0.00300000003
     17, -0.0250000004, -0.00100000005, 0.00300000003
     18, -0.0250000004,           0., 0.00300000003
     19, -0.0250000004, 0.00100000005, 0.00300000003
     20, -0.0250000004, 0.00200000009, 0.00300000003
** ... 1765 like lines cut
*Element, type=C3D8R
   1,   36,   37,   42,   41,    1,    2,    7,    6
   2,   37,   38,   43,   42,    2,    3,    8,    7
   3,   38,   39,   44,   43,    3,    4,    9,    8
   4,   39,   40,   45,   44,    4,    5,   10,    9
   5,   41,   42,   47,   46,    6,    7,   12,   11
   6,   42,   43,   48,   47,    7,    8,   13,   12
   7,   43,   44,   49,   48,    8,    9,   14,   13
   8,   44,   45,   50,   49,    9,   10,   15,   14
   9,   46,   47,   52,   51,   11,   12,   17,   16
  10,   47,   48,   53,   52,   12,   13,   18,   17
  11,   48,   49,   54,   53,   13,   14,   19,   18
  12,   49,   50,   55,   54,   14,   15,   20,   19
  13,   51,   52,   57,   56,   16,   17,   22,   21
  14,   52,   53,   58,   57,   17,   18,   23,   22
  15,   53,   54,   59,   58,   18,   19,   24,   23
  16,   54,   55,   60,   59,   19,   20,   25,   24
  17,   56,   57,   62,   61,   21,   22,   27,   26
  18,   57,   58,   63,   62,   22,   23,   28,   27
  19,   58,   59,   64,   63,   23,   24,   29,   28
  20,   59,   60,   65,   64,   24,   25,   30,   29
** ... 1180 like lines cut
*Nset, nset=Set-1, generate
    1,  1785,     1
*Elset, elset=Set-1, generate
    1,  1200,     1
** Section: Gauge
*Solid Section, elset=Set-1, material=NeoHooke
,
*End Part
**  
**
** ASSEMBLY
**
*Assembly, name=Assembly
**  
*Instance, name=Gauge-1, part=Gauge
*End Instance
**  
*Nset, nset=Disp, instance=Gauge-1, generate
 1751,  1785,     1
*Elset, elset=Disp, instance=Gauge-1, generate
 1177,  1200,     1
*Nset, nset=Fixed, instance=Gauge-1, generate
  1,  35,   1
*Elset, elset=Fixed, instance=Gauge-1, generate
  1,  24,   1
*End Assembly
*Amplitude, name=Amp-1
             0.,              0.,             0.1,              1.
** 
** MATERIALS
** 
*Material, name=Fibers
*Density
7800.,
*Elastic
 2e+11, 0.3
*Material, name=NeoHooke
*Density
 7.8e+09,
*Hyperelastic, neo hooke
 3.846e+10, 1.1999e-11
** 
** BOUNDARY CONDITIONS
** 
** Name: Fixed Type: Displacement/Rotation
*Boundary
Fixed, 1, 1
** ----------------------------------------------------------------
** 
** STEP: Step-1
** 
*Step, name=Step-1, nlgeom=YES
*Dynamic, Explicit
, 0.1
*Bulk Viscosity
0.06, 1.2
** 
** BOUNDARY CONDITIONS
** 
** Name: Disp Type: Displacement/Rotation
*Boundary, amplitude=Amp-1
Disp, 1, 1, 0.001
** 
** OUTPUT REQUESTS
** 
*Restart, write, number interval=1, time marks=NO
** 
** FIELD OUTPUT: F-Output-1
** 
*Output, field, variable=PRESELECT, number interval=100
** 
** HISTORY OUTPUT: H-Output-1
** 
*Output, history, variable=PRESELECT
*End Step
