*Heading
** Job name: JCPlasticity-Rate100 Model name: TensileGauge-Plasticity
** Generated by: Abaqus/CAE 2022
*Preprint, echo=NO, model=NO, history=NO, contact=NO
**
** PARTS
**
*Part, name=Gauge
*Node
      1, -0.0140000004, -0.00200000009, 0.00300000003
      2, -0.0140000004, 0.000500000024, 0.00300000003
      3, -0.0140000004, 0.00300000003, 0.00300000003
      4, -0.0140000004, -0.00200000009, 0.00150000001
      5, -0.0140000004, 0.000500000024, 0.00150000001
      6, -0.0140000004, 0.00300000003, 0.00150000001
      7, -0.0140000004, -0.00200000009,           0.
      8, -0.0140000004, 0.000500000024,           0.
      9, -0.0140000004, 0.00300000003,           0.
     10, -0.0116923079, -0.00200000009, 0.00300000003
     11, -0.0116923079, 0.000500000024, 0.00300000003
     12, -0.0116923079, 0.00300000003, 0.00300000003
     13, -0.0116923079, -0.00200000009, 0.00150000001
     14, -0.0116923079, 0.000500000024, 0.00150000001
     15, -0.0116923079, 0.00300000003, 0.00150000001
     16, -0.0116923079, -0.00200000009,           0.
     17, -0.0116923079, 0.000500000024,           0.
     18, -0.0116923079, 0.00300000003,           0.
     19, -0.00938461535, -0.00200000009, 0.00300000003
     20, -0.00938461535, 0.000500000024, 0.00300000003
** ... 106 like lines cut
*Element, type=C3D8R
 1,  10,  11,  14,  13,   1,   2,   5,   4
 2,  11,  12,  15,  14,   2,   3,   6,   5
 3,  13,  14,  17,  16,   4,   5,   8,   7
 4,  14,  15,  18,  17,   5,   6,   9,   8
 5,  19,  20,  23,  22,  10,  11,  14,  13
 6,  20,  21,  24,  23,  11,  12,  15,  14
 7,  22,  23,  26,  25,  13,  14,  17,  16
 8,  23,  24,  27,  26,  14,  15,  18,  17
 9,  28,  29,  32,  31,  19,  20,  23,  22
10,  29,  30,  33,  32,  20,  21,  24,  23
11,  31,  32,  35,  34,  22,  23,  26,  25
12,  32,  33,  36,  35,  23,  24,  27,  26
13,  37,  38,  41,  40,  28,  29,  32,  31
14,  38,  39,  42,  41,  29,  30,  33,  32
15,  40,  41,  44,  43,  31,  32,  35,  34
16,  41,  42,  45,  44,  32,  33,  36,  35
17,  46,  47,  50,  49,  37,  38,  41,  40
18,  47,  48,  51,  50,  38,  39,  42,  41
19,  49,  50,  53,  52,  40,  41,  44,  43
20,  50,  51,  54,  53,  41,  42,  45,  44
** ... 32 like lines cut
*Nset, nset=Set-1, generate
   1,  126,    1
*Elset, elset=Set-1, generate
  1,  52,   1
** Section: JC-Plasticity
*Solid Section, elset=Set-1, material=NeoHooke
,
*End Part
**
*Part, name=Fibers0
*Node
      1,     -0.013788,     -0.002000,      0.000212
      2,     -0.013788,      0.003000,      0.000212
      3,     -0.012938,     -0.002000,      0.000212
      4,     -0.012938,      0.003000,      0.000212
      5,     -0.012088,     -0.002000,      0.000212
      6,     -0.012088,      0.003000,      0.000212
      7,     -0.011238,     -0.002000,      0.000212
      8,     -0.011238,      0.003000,      0.000212
      9,     -0.010388,     -0.002000,      0.000212
      10,     -0.010388,      0.003000,      0.000212
      11,     -0.009538,     -0.002000,      0.000212
      12,     -0.009538,      0.003000,      0.000212
      13,     -0.008688,     -0.002000,      0.000212
      14,     -0.008688,      0.003000,      0.000212
      15,     -0.007838,     -0.002000,      0.000212
      16,     -0.007838,      0.003000,      0.000212
      17,     -0.006988,     -0.002000,      0.000212
      18,     -0.006988,      0.003000,      0.000212
      19,     -0.006138,     -0.002000,      0.000212
      20,     -0.006138,      0.003000,      0.000212
** ... 120 like lines cut
*Element, type=T3D2
1, 1, 2
2, 3, 4
3, 5, 6
4, 7, 8
5, 9, 10
6, 11, 12
7, 13, 14
8, 15, 16
9, 17, 18
10, 19, 20
11, 21, 22
12, 23, 24
13, 25, 26
14, 27, 28
15, 29, 30
16, 31, 32
17, 33, 34
18, 35, 36
19, 37, 38
20, 39, 40
** ... 50 like lines cut
*Nset, nset=Fib0, internal, generate
1, 140, 1
*Elset, elset=Fib0, internal, generate
1, 71, 1
**Section: TrussSection
*Solid Section, elset=Fib0, material=Fibers
5.674502E-07,
*End Part
**
*Part, name=Fibers90
*Node
      1,     -0.014000,     -0.001788,      0.001062
      2,      0.016000,     -0.001788,      0.001062
      3,     -0.014000,     -0.000938,      0.001062
      4,      0.016000,     -0.000938,      0.001062
      5,     -0.014000,     -0.000088,      0.001062
      6,      0.016000,     -0.000088,      0.001062
      7,     -0.014000,      0.000762,      0.001062
      8,      0.016000,      0.000762,      0.001062
      9,     -0.014000,      0.001612,      0.001062
      10,      0.016000,      0.001612,      0.001062
      11,     -0.014000,      0.002462,      0.001062
      12,      0.016000,      0.002462,      0.001062
      13,     -0.014000,     -0.001788,      0.002762
      14,      0.016000,     -0.001788,      0.002762
      15,     -0.014000,     -0.000938,      0.002762
      16,      0.016000,     -0.000938,      0.002762
      17,     -0.014000,     -0.000088,      0.002762
      18,      0.016000,     -0.000088,      0.002762
      19,     -0.014000,      0.000762,      0.002762
      20,      0.016000,      0.000762,      0.002762
** ... 4 like lines cut
*Element, type=T3D2
1, 1, 2
2, 3, 4
3, 5, 6
4, 7, 8
5, 9, 10
6, 11, 12
7, 13, 14
8, 15, 16
9, 17, 18
10, 19, 20
11, 21, 22
12, 23, 24
*Nset, nset=Fib90, internal, generate
1, 24, 1
*Elset, elset=Fib90, internal, generate
1, 13, 1
**Section: TrussSection
*Solid Section, elset=Fib90, material=Fibers
5.674502E-07,
*End Part
**  
**
** ASSEMBLY
**
*Assembly, name=Assembly
**  
*Instance, name=Gauge-1, part=Gauge
*End Instance
**
*Instance, name=Fibers0, part=Fibers0
0.000000E+00, 0.000000E+00, 0.000000E+00
*End Instance
**
*Instance, name=Fibers90, part=Fibers90
0.000000E+00, 0.000000E+00, 0.000000E+00
*End Instance
*Nset, nset=ALLFIBERS, instance=FIBERS0, generate
1, 140, 1
*Nset, nset=ALLFIBERS, instance=FIBERS90, generate
1, 24, 1
*Elset, elset=ALLFIBERS, instance=FIBERS0, generate
1, 71, 1
*Elset, elset=ALLFIBERS, instance=FIBERS90, generate
1, 13, 1 
*Nset, nset=Fixed, instance=Gauge-1, generate
 1,  9,  1
*Elset, elset=Fixed, instance=Gauge-1, generate
 1,  4,  1
*Nset, nset=Outside, instance=Gauge-1
   1,   2,   3,   4,   5,   6,   7,   8,   9,  10,  11,  12,  13,  15,  16,  17
  18,  19,  20,  21,  22,  24,  25,  26,  27,  28,  29,  30,  31,  33,  34,  35
  36,  37,  38,  39,  40,  42,  43,  44,  45,  46,  47,  48,  49,  51,  52,  53
  54,  55,  56,  57,  58,  60,  61,  62,  63,  64,  65,  66,  67,  69,  70,  71
  72,  73,  74,  75,  76,  78,  79,  80,  81,  82,  83,  84,  85,  87,  88,  89
  90,  91,  92,  93,  94,  96,  97,  98,  99, 100, 101, 102, 103, 105, 106, 107
 108, 109, 110, 111, 112, 114, 115, 116, 117, 118, 119, 120, 121, 122, 123, 124
 125, 126
*Elset, elset=Outside, instance=Gauge-1, generate
  1,  52,   1
*Nset, nset=HOST, instance=Gauge-1, generate
 1, 126, 1
*Elset, elset=HOST, instance=Gauge-1, generate
  1,  52,   1
*Nset, nset=Velocity, instance=Gauge-1, generate
 118,  126,    1
*Elset, elset=Velocity, instance=Gauge-1, generate
 49,  52,   1
** Constraint: Embed-1
*Embedded Element, host elset=HOST
ALLFIBERS
*End Assembly
*Amplitude, name=Ramp
             0.,              0.,             0.1,              1.
** 
** MATERIALS
** 
*Material, name=Fibers
*Density
981.,
*Elastic
 2e+11, 0.3
*Material, name=NeoHooke
*Density
 7.8e+09,
*Hyperelastic, neo hooke
 3.846e+10, 1.1999e-11
** 
** BOUNDARY CONDITIONS
** 
** Name: Fixed Type: Displacement/Rotation
*Boundary
Fixed, 1, 1
** ----------------------------------------------------------------
** 
** STEP: Step-1
** 
*Step, name=Step-1, nlgeom=YES
*Dynamic, Explicit
, 0.1
*Bulk Viscosity
0.06, 1.2
** 
** BOUNDARY CONDITIONS
** 
** Name: Disp Type: Displacement/Rotation
*Boundary, amplitude=Ramp
Velocity, 1, 1, 0.3
** 
** OUTPUT REQUESTS
** 
*Restart, write, number interval=1, time marks=NO
** 
** FIELD OUTPUT: F-Output-1
** 
*Output, field, number interval=100
*Node Output
A, RF, U, V
*Element Output, directions=YES
CFAILURE, DMICRT, ER, EVF, LE, PE, PEEQ, PEEQVAVG, PEVAVG, S, SDEG, SVAVG
*Contact Output
CSTRESS, 
** 
** HISTORY OUTPUT: H-Output-1
** 
*Output, history, variable=PRESELECT
*End Step
